data_global
_cell_length_a 40
_cell_length_b 42.6659
_cell_length_c 63.9387
_cell_angle_alpha 90
_cell_angle_beta 90
_cell_angle_gamma 90
_symmetry_space_group_name_H-M 'P -1'
loop_
_symmetry_equiv_pos_as_xyz
  'x,y,z'
loop_
_atom_site_label
_atom_site_fract_x
_atom_site_fract_y
_atom_site_fract_z
C 0.312001 0.391355 0.0111108
C 0.312001 0.449036 0.0111108
C 0.312001 0.506716 0.0111108
C 0.312001 0.564397 0.0111108
H 0.312001 0.36923 0.0196346
H 0.312001 0.586522 0.0196346
C 0.312001 0.420195 0.0222219
C 0.312001 0.477876 0.0222219
C 0.312001 0.535557 0.0222219
C 0.312001 0.420195 0.911111
C 0.312001 0.477876 0.911111
C 0.312001 0.535557 0.911111
H 0.312001 0.36923 0.913699
H 0.312001 0.586522 0.913699
C 0.312001 0.391355 0.922223
C 0.312001 0.449036 0.922223
C 0.312001 0.506716 0.922223
C 0.312001 0.564397 0.922223
C 0.312001 0.391355 0.944445
C 0.312001 0.449036 0.944445
C 0.312001 0.506716 0.944445
C 0.312001 0.564397 0.944445
C 0.312001 0.420195 0.955556
C 0.312001 0.477876 0.955556
C 0.312001 0.535557 0.955556
C 0.312001 0.420195 0.977778
C 0.312001 0.477876 0.977778
C 0.312001 0.535557 0.977778
C 0.312001 0.391355 0.988889
C 0.312001 0.449036 0.988889
C 0.312001 0.506716 0.988889
C 0.312001 0.564397 0.988889
C 0.312001 0.391355 0.0777775
C 0.312001 0.391355 0.544445
C 0.312001 0.391355 0.144444
C 0.312001 0.391355 0.611111
C 0.312001 0.391355 0.211111
C 0.312001 0.391355 0.677778
C 0.312001 0.391355 0.277777
C 0.312001 0.391355 0.744445
C 0.312001 0.391355 0.344444
C 0.312001 0.391355 0.811111
C 0.312001 0.391355 0.411111
C 0.312001 0.391355 0.877778
C 0.312001 0.391355 0.477777
C 0.312001 0.420195 0.0888886
C 0.312001 0.420195 0.555556
C 0.312001 0.420195 0.155555
C 0.312001 0.420195 0.622223
C 0.312001 0.420195 0.222222
C 0.312001 0.420195 0.688889
C 0.312001 0.420195 0.288889
C 0.312001 0.420195 0.755556
C 0.312001 0.420195 0.355555
C 0.312001 0.420195 0.822223
C 0.312001 0.420195 0.422222
C 0.312001 0.420195 0.888889
C 0.312001 0.420195 0.488889
C 0.312001 0.391355 0.0555552
C 0.312001 0.391355 0.522223
C 0.312001 0.391355 0.122222
C 0.312001 0.391355 0.588889
C 0.312001 0.391355 0.188889
C 0.312001 0.391355 0.655556
C 0.312001 0.391355 0.255555
C 0.312001 0.391355 0.722223
C 0.312001 0.391355 0.322222
C 0.312001 0.391355 0.788889
C 0.312001 0.391355 0.388889
C 0.312001 0.391355 0.855556
C 0.312001 0.391355 0.455555
C 0.312001 0.449036 0.0777775
C 0.312001 0.449036 0.544445
C 0.312001 0.449036 0.144444
C 0.312001 0.449036 0.611111
C 0.312001 0.449036 0.211111
C 0.312001 0.449036 0.677778
C 0.312001 0.449036 0.277777
C 0.312001 0.449036 0.744445
C 0.312001 0.449036 0.344444
C 0.312001 0.449036 0.811111
C 0.312001 0.449036 0.411111
C 0.312001 0.449036 0.877778
C 0.312001 0.449036 0.477777
C 0.312001 0.477876 0.0888886
C 0.312001 0.477876 0.555556
C 0.312001 0.477876 0.155555
C 0.312001 0.477876 0.622223
C 0.312001 0.477876 0.222222
C 0.312001 0.477876 0.688889
C 0.312001 0.477876 0.288889
C 0.312001 0.477876 0.755556
C 0.312001 0.477876 0.355555
C 0.312001 0.477876 0.822223
C 0.312001 0.477876 0.422222
C 0.312001 0.477876 0.888889
C 0.312001 0.477876 0.488889
C 0.312001 0.420195 0.0444441
C 0.312001 0.420195 0.511111
C 0.312001 0.420195 0.111111
C 0.312001 0.420195 0.577778
C 0.312001 0.420195 0.177777
C 0.312001 0.420195 0.644445
C 0.312001 0.420195 0.244444
C 0.312001 0.420195 0.711111
C 0.312001 0.420195 0.311111
C 0.312001 0.420195 0.777778
C 0.312001 0.420195 0.377777
C 0.312001 0.420195 0.844445
C 0.312001 0.420195 0.444444
C 0.312001 0.449036 0.0555552
C 0.312001 0.449036 0.522223
C 0.312001 0.449036 0.122222
C 0.312001 0.449036 0.588889
C 0.312001 0.449036 0.188889
C 0.312001 0.449036 0.655556
C 0.312001 0.449036 0.255555
C 0.312001 0.449036 0.722223
C 0.312001 0.449036 0.322222
C 0.312001 0.449036 0.788889
C 0.312001 0.449036 0.388889
C 0.312001 0.449036 0.855556
C 0.312001 0.449036 0.455555
C 0.312001 0.506716 0.0777775
C 0.312001 0.506716 0.544445
C 0.312001 0.506716 0.144444
C 0.312001 0.506716 0.611111
C 0.312001 0.506716 0.211111
C 0.312001 0.506716 0.677778
C 0.312001 0.506716 0.277777
C 0.312001 0.506716 0.744445
C 0.312001 0.506716 0.344444
C 0.312001 0.506716 0.811111
C 0.312001 0.506716 0.411111
C 0.312001 0.506716 0.877778
C 0.312001 0.506716 0.477777
C 0.312001 0.535557 0.0888886
C 0.312001 0.535557 0.555556
C 0.312001 0.535557 0.155555
C 0.312001 0.535557 0.622223
C 0.312001 0.535557 0.222222
C 0.312001 0.535557 0.688889
C 0.312001 0.535557 0.288889
C 0.312001 0.535557 0.755556
C 0.312001 0.535557 0.355555
C 0.312001 0.535557 0.822223
C 0.312001 0.535557 0.422222
C 0.312001 0.535557 0.888889
C 0.312001 0.535557 0.488889
C 0.312001 0.477876 0.0444441
C 0.312001 0.477876 0.511111
C 0.312001 0.477876 0.111111
C 0.312001 0.477876 0.577778
C 0.312001 0.477876 0.177777
C 0.312001 0.477876 0.644445
C 0.312001 0.477876 0.244444
C 0.312001 0.477876 0.711111
C 0.312001 0.477876 0.311111
C 0.312001 0.477876 0.777778
C 0.312001 0.477876 0.377777
C 0.312001 0.477876 0.844445
C 0.312001 0.477876 0.444444
C 0.312001 0.506716 0.0555552
C 0.312001 0.506716 0.522223
C 0.312001 0.506716 0.122222
C 0.312001 0.506716 0.588889
C 0.312001 0.506716 0.188889
C 0.312001 0.506716 0.655556
C 0.312001 0.506716 0.255555
C 0.312001 0.506716 0.722223
C 0.312001 0.506716 0.322222
C 0.312001 0.506716 0.788889
C 0.312001 0.506716 0.388889
C 0.312001 0.506716 0.855556
C 0.312001 0.506716 0.455555
C 0.312001 0.564397 0.0777775
C 0.312001 0.564397 0.544445
C 0.312001 0.564397 0.144444
C 0.312001 0.564397 0.611111
C 0.312001 0.564397 0.211111
C 0.312001 0.564397 0.677778
C 0.312001 0.564397 0.277777
C 0.312001 0.564397 0.744445
C 0.312001 0.564397 0.344444
C 0.312001 0.564397 0.811111
C 0.312001 0.564397 0.411111
C 0.312001 0.564397 0.877778
C 0.312001 0.564397 0.477777
C 0.312001 0.535557 0.0444441
C 0.312001 0.535557 0.511111
C 0.312001 0.535557 0.111111
C 0.312001 0.535557 0.577778
C 0.312001 0.535557 0.177777
C 0.312001 0.535557 0.644445
C 0.312001 0.535557 0.244444
C 0.312001 0.535557 0.711111
C 0.312001 0.535557 0.311111
C 0.312001 0.535557 0.777778
C 0.312001 0.535557 0.377777
C 0.312001 0.535557 0.844445
C 0.312001 0.535557 0.444444
C 0.312001 0.564397 0.0555552
C 0.312001 0.564397 0.522223
C 0.312001 0.564397 0.122222
C 0.312001 0.564397 0.588889
C 0.312001 0.564397 0.188889
C 0.312001 0.564397 0.655556
C 0.312001 0.564397 0.255555
C 0.312001 0.564397 0.722223
C 0.312001 0.564397 0.322222
C 0.312001 0.564397 0.788889
C 0.312001 0.564397 0.388889
C 0.312001 0.564397 0.855556
C 0.312001 0.564397 0.455555
H 0.312001 0.36923 0.0863013
H 0.312001 0.36923 0.552969
H 0.312001 0.36923 0.152968
H 0.312001 0.36923 0.619635
H 0.312001 0.36923 0.219635
H 0.312001 0.36923 0.686302
H 0.312001 0.36923 0.286301
H 0.312001 0.36923 0.752969
H 0.312001 0.36923 0.352968
H 0.312001 0.36923 0.819635
H 0.312001 0.36923 0.419635
H 0.312001 0.36923 0.886302
H 0.312001 0.36923 0.486301
H 0.312001 0.36923 0.0470315
H 0.312001 0.36923 0.513699
H 0.312001 0.36923 0.113698
H 0.312001 0.36923 0.580365
H 0.312001 0.36923 0.180365
H 0.312001 0.36923 0.647032
H 0.312001 0.36923 0.247031
H 0.312001 0.36923 0.713699
H 0.312001 0.36923 0.313698
H 0.312001 0.36923 0.780365
H 0.312001 0.36923 0.380365
H 0.312001 0.36923 0.847032
H 0.312001 0.36923 0.447031
H 0.312001 0.586522 0.0863013
H 0.312001 0.586522 0.552969
H 0.312001 0.586522 0.152968
H 0.312001 0.586522 0.619635
H 0.312001 0.586522 0.219635
H 0.312001 0.586522 0.686302
H 0.312001 0.586522 0.286301
H 0.312001 0.586522 0.752969
H 0.312001 0.586522 0.352968
H 0.312001 0.586522 0.819635
H 0.312001 0.586522 0.419635
H 0.312001 0.586522 0.886302
H 0.312001 0.586522 0.486301
H 0.312001 0.586522 0.0470315
H 0.312001 0.586522 0.513699
H 0.312001 0.586522 0.113698
H 0.312001 0.586522 0.580365
H 0.312001 0.586522 0.180365
H 0.312001 0.586522 0.647032
H 0.312001 0.586522 0.247031
H 0.312001 0.586522 0.713699
H 0.312001 0.586522 0.313698
H 0.312001 0.586522 0.780365
H 0.312001 0.586522 0.380365
H 0.312001 0.586522 0.847032
H 0.312001 0.586522 0.447031
O 0.486824 0.480444 0.79115
C 0.397424 0.50545 0.832964
C 0.397624 0.50419 0.810865
C 0.397549 0.477345 0.844761
C 0.397499 0.532238 0.799412
C 0.397099 0.534752 0.843303
C 0.434824 0.532918 0.797591
C 0.397874 0.44802 0.834418
C 0.397324 0.478577 0.866871
C 0.397974 0.474945 0.800889
C 0.397174 0.561079 0.809627
C 0.450649 0.537138 0.775824
C 0.396974 0.562385 0.831411
C 0.398074 0.447244 0.812512
C 0.396874 0.535552 0.865213
C 0.396999 0.507851 0.876835
C 0.397999 0.420405 0.846329
C 0.397449 0.450558 0.878312
C 0.488524 0.530668 0.774522
C 0.397774 0.421687 0.868109
C 0.496724 0.495801 0.776168
H 0.448399 0.548203 0.808532
H 0.439599 0.509481 0.803879
H 0.397774 0.472462 0.784003
H 0.396999 0.582894 0.800829
H 0.447074 0.561406 0.770609
H 0.437474 0.522257 0.764515
H 0.396699 0.585193 0.839026
H 0.398249 0.424975 0.80423
H 0.396624 0.557814 0.87351
H 0.396824 0.509379 0.893821
H 0.398249 0.397597 0.838714
H 0.397299 0.450937 0.895333
H 0.502349 0.542873 0.787175
H 0.497774 0.541159 0.759826
H 0.397874 0.400146 0.877146
P 0.658399 0.558021 0.731184
P 0.605274 0.605106 0.725865
O 0.513224 0.532844 0.70754
O 0.592224 0.547464 0.767129
O 0.543049 0.540098 0.665758
O 0.579074 0.492582 0.679403
O 0.647174 0.548993 0.754311
O 0.570974 0.599518 0.713152
O 0.648499 0.490965 0.808052
O 0.621274 0.550677 0.821823
O 0.655049 0.484573 0.76329
O 0.624024 0.571465 0.719768
O 0.545999 0.564578 0.800328
O 0.526074 0.439929 0.700398
O 0.659549 0.523653 0.720114
O 0.623449 0.63077 0.711743
O 0.687999 0.578005 0.729093
O 0.603424 0.613006 0.748166
O 0.510924 0.427439 0.771258
N 0.529524 0.484044 0.721455
N 0.519874 0.434483 0.736178
C 0.558449 0.546176 0.685434
C 0.565899 0.513254 0.694287
C 0.533249 0.559254 0.701182
C 0.530199 0.504366 0.702689
C 0.639449 0.514895 0.793851
C 0.612124 0.536555 0.802597
C 0.628949 0.502181 0.772281
C 0.602699 0.562035 0.786639
C 0.617299 0.529442 0.758408
C 0.549349 0.574461 0.720476
C 0.574274 0.582791 0.794316
C 0.525199 0.451241 0.717899
C 0.522449 0.496881 0.740435
C 0.514224 0.480253 0.758171
C 0.515199 0.445923 0.756699
H 0.581224 0.561006 0.684017
H 0.584024 0.515029 0.707509
H 0.516124 0.576352 0.69363
H 0.517124 0.490677 0.690256
H 0.662749 0.528768 0.791372
H 0.588924 0.52262 0.805501
H 0.606199 0.487158 0.774407
H 0.624449 0.577551 0.783321
H 0.607724 0.520355 0.743228
H 0.530024 0.584533 0.730952
H 0.563899 0.55711 0.729678
H 0.567824 0.599446 0.781548
H 0.584474 0.59614 0.807787
H 0.538849 0.559902 0.658656
H 0.568324 0.498834 0.666226
H 0.521874 0.522507 0.740314
H 0.628299 0.478973 0.811183
H 0.645599 0.549853 0.822798
H 0.658374 0.491727 0.748926
H 0.512524 0.411289 0.734383
H 0.539699 0.570776 0.814383
H 0.677799 0.522842 0.709937
H 0.631349 0.622282 0.698451
O 0.486824 0.480444 0.19115
C 0.397424 0.50545 0.232964
C 0.397624 0.50419 0.210865
C 0.397549 0.477345 0.244761
C 0.397499 0.532238 0.199412
C 0.397099 0.534752 0.243303
C 0.434824 0.532918 0.197591
C 0.397874 0.44802 0.234418
C 0.397324 0.478577 0.266871
C 0.397974 0.474945 0.200889
C 0.397174 0.561079 0.209627
C 0.450649 0.537138 0.175824
C 0.396974 0.562385 0.231411
C 0.398074 0.447244 0.212512
C 0.396874 0.535552 0.265213
C 0.396999 0.507851 0.276835
C 0.397999 0.420405 0.246329
C 0.397449 0.450558 0.278312
C 0.488524 0.530668 0.174522
C 0.397774 0.421687 0.268109
C 0.496724 0.495801 0.176168
H 0.448399 0.548203 0.208532
H 0.439599 0.509481 0.203879
H 0.397774 0.472462 0.184003
H 0.396999 0.582894 0.200829
H 0.447074 0.561406 0.170609
H 0.437474 0.522257 0.164515
H 0.396699 0.585193 0.239026
H 0.398249 0.424975 0.20423
H 0.396624 0.557814 0.27351
H 0.396824 0.509379 0.293821
H 0.398249 0.397597 0.238714
H 0.397299 0.450937 0.295333
H 0.502349 0.542873 0.187175
H 0.497774 0.541159 0.159826
H 0.397874 0.400146 0.277146
P 0.658399 0.558021 0.131184
P 0.605274 0.605106 0.125865
O 0.513224 0.532844 0.10754
O 0.592224 0.547464 0.167129
O 0.543049 0.540098 0.0657576
O 0.579074 0.492582 0.079403
O 0.647174 0.548993 0.154311
O 0.570974 0.599518 0.113152
O 0.648499 0.490965 0.208052
O 0.621274 0.550677 0.221823
O 0.655049 0.484573 0.16329
O 0.624024 0.571465 0.119768
O 0.545999 0.564578 0.200328
O 0.526074 0.439929 0.100398
O 0.659549 0.523653 0.120114
O 0.623449 0.63077 0.111743
O 0.687999 0.578005 0.129093
O 0.603424 0.613006 0.148166
O 0.510924 0.427439 0.171258
N 0.529524 0.484044 0.121455
N 0.519874 0.434483 0.136178
C 0.558449 0.546176 0.0854344
C 0.565899 0.513254 0.0942866
C 0.533249 0.559254 0.101182
C 0.530199 0.504366 0.102689
C 0.639449 0.514895 0.193851
C 0.612124 0.536555 0.202597
C 0.628949 0.502181 0.172281
C 0.602699 0.562035 0.186639
C 0.617299 0.529442 0.158408
C 0.549349 0.574461 0.120476
C 0.574274 0.582791 0.194316
C 0.525199 0.451241 0.117899
C 0.522449 0.496881 0.140435
C 0.514224 0.480253 0.158171
C 0.515199 0.445923 0.156699
H 0.581224 0.561006 0.0840171
H 0.584024 0.515029 0.107509
H 0.516124 0.576352 0.0936303
H 0.517124 0.490677 0.0902563
H 0.662749 0.528768 0.191372
H 0.588924 0.52262 0.205501
H 0.606199 0.487158 0.174407
H 0.624449 0.577551 0.183321
H 0.607724 0.520355 0.143228
H 0.530024 0.584533 0.130952
H 0.563899 0.55711 0.129678
H 0.567824 0.599446 0.181548
H 0.584474 0.59614 0.207787
H 0.538849 0.559902 0.0586558
H 0.568324 0.498834 0.0662264
H 0.521874 0.522507 0.140314
H 0.628299 0.478973 0.211183
H 0.645599 0.549853 0.222798
H 0.658374 0.491727 0.148926
H 0.512524 0.411289 0.134383
H 0.539699 0.570776 0.214383
H 0.677799 0.522842 0.109937
H 0.631349 0.622282 0.0984511
O 0.486824 0.480444 0.59115
C 0.397424 0.50545 0.632964
C 0.397624 0.50419 0.610865
C 0.397549 0.477345 0.644761
C 0.397499 0.532238 0.599412
C 0.397099 0.534752 0.643303
C 0.434824 0.532918 0.597591
C 0.397874 0.44802 0.634418
C 0.397324 0.478577 0.666871
C 0.397974 0.474945 0.600889
C 0.397174 0.561079 0.609627
C 0.450649 0.537138 0.575824
C 0.396974 0.562385 0.631411
C 0.398074 0.447244 0.612512
C 0.396874 0.535552 0.665213
C 0.396999 0.507851 0.676835
C 0.397999 0.420405 0.646329
C 0.397449 0.450558 0.678312
C 0.488524 0.530668 0.574522
C 0.397774 0.421687 0.668109
C 0.496724 0.495801 0.576168
H 0.448399 0.548203 0.608532
H 0.439599 0.509481 0.603879
H 0.397774 0.472462 0.584003
H 0.396999 0.582894 0.600829
H 0.447074 0.561406 0.570609
H 0.437474 0.522257 0.564515
H 0.396699 0.585193 0.639026
H 0.398249 0.424975 0.60423
H 0.396624 0.557814 0.67351
H 0.396824 0.509379 0.693821
H 0.398249 0.397597 0.638714
H 0.397299 0.450937 0.695333
H 0.502349 0.542873 0.587175
H 0.497774 0.541159 0.559826
H 0.397874 0.400146 0.677146
P 0.658399 0.558021 0.531184
P 0.605274 0.605106 0.525865
O 0.513224 0.532844 0.50754
O 0.592224 0.547464 0.567129
O 0.543049 0.540098 0.465758
O 0.579074 0.492582 0.479403
O 0.647174 0.548993 0.554311
O 0.570974 0.599518 0.513152
O 0.648499 0.490965 0.608052
O 0.621274 0.550677 0.621823
O 0.655049 0.484573 0.56329
O 0.624024 0.571465 0.519768
O 0.545999 0.564578 0.600328
O 0.526074 0.439929 0.500398
O 0.659549 0.523653 0.520114
O 0.623449 0.63077 0.511743
O 0.687999 0.578005 0.529093
O 0.603424 0.613006 0.548166
O 0.510924 0.427439 0.571258
N 0.529524 0.484044 0.521455
N 0.519874 0.434483 0.536178
C 0.558449 0.546176 0.485434
C 0.565899 0.513254 0.494287
C 0.533249 0.559254 0.501182
C 0.530199 0.504366 0.502689
C 0.639449 0.514895 0.593851
C 0.612124 0.536555 0.602597
C 0.628949 0.502181 0.572281
C 0.602699 0.562035 0.586639
C 0.617299 0.529442 0.558408
C 0.549349 0.574461 0.520476
C 0.574274 0.582791 0.594316
C 0.525199 0.451241 0.517899
C 0.522449 0.496881 0.540435
C 0.514224 0.480253 0.558171
C 0.515199 0.445923 0.556699
H 0.581224 0.561006 0.484017
H 0.584024 0.515029 0.507509
H 0.516124 0.576352 0.49363
H 0.517124 0.490677 0.490256
H 0.662749 0.528768 0.591372
H 0.588924 0.52262 0.605501
H 0.606199 0.487158 0.574407
H 0.624449 0.577551 0.583321
H 0.607724 0.520355 0.543228
H 0.530024 0.584533 0.530952
H 0.563899 0.55711 0.529678
H 0.567824 0.599446 0.581548
H 0.584474 0.59614 0.607787
H 0.538849 0.559902 0.458656
H 0.568324 0.498834 0.466226
H 0.521874 0.522507 0.540314
H 0.628299 0.478973 0.611183
H 0.645599 0.549853 0.622798
H 0.658374 0.491727 0.548926
H 0.512524 0.411289 0.534383
H 0.539699 0.570776 0.614383
H 0.677799 0.522842 0.509937
H 0.631349 0.622282 0.498451
H 0.312001 0.36923 0.952969
H 0.312001 0.586522 0.952969
H 0.312001 0.36923 0.980365
H 0.312001 0.586522 0.980365
H 0.395084 0.458465 0.473636
H 0.396113 0.429923 0.439595
H 0.396824 0.509379 0.493821
C 0.397104 0.481431 0.465233
C 0.397945 0.452696 0.430961
H 0.400393 0.430529 0.400063
C 0.397907 0.509357 0.476321
C 0.398212 0.481066 0.442602
C 0.400117 0.453135 0.408967
H 0.400223 0.567788 0.494133
C 0.399722 0.539206 0.465598
C 0.399573 0.510516 0.431401
C 0.400786 0.568162 0.476628
C 0.401832 0.481601 0.397596
C 0.400187 0.53955 0.442948
C 0.400824 0.51079 0.408766
H 0.401524 0.541568 0.380742
C 0.40219 0.596932 0.465733
C 0.401526 0.569128 0.43195
H 0.402842 0.619471 0.474687
C 0.401464 0.540872 0.398227
C 0.402481 0.5975 0.443664
C 0.401664 0.568807 0.409343
H 0.403458 0.620313 0.435015
H 0.401872 0.59179 0.400883
C 0.408361 0.480664 0.374081
H 0.461782 0.469433 0.378507
H 0.401508 0.456842 0.367713
H 0.452861 0.510976 0.376851
H 0.39256 0.498309 0.365374
C 0.446331 0.487434 0.369924
O 0.504107 0.524362 0.340223
C 0.456147 0.487256 0.346166
C 0.492952 0.496507 0.343805
H 0.440707 0.504947 0.33736
H 0.451612 0.463263 0.339307
O 0.514239 0.47108 0.347032
H 0.538032 0.481862 0.345845
