# CIF file generated by openbabel 2.3.2, see http://openbabel.sf.net
data_I
_chemical_name_common '7GNR_PBA.bgf'
_cell_length_a 35
_cell_length_b 30
_cell_length_c 55.4136
_cell_angle_alpha 90
_cell_angle_beta 90
_cell_angle_gamma 90
loop_
    _atom_site_type_symbol
    _atom_site_label
    _atom_site_Cartn_x
    _atom_site_Cartn_y
    _atom_site_Cartn_z
      H    H1    19.82746    5.65139   14.30497
      H    H2    15.08676   20.16658   48.95203
      H    H3    19.50930    4.37289   12.18629
      H    H4    16.55737   18.94858   47.34629
      H    H5    19.91551    7.85860   15.53260
      H    H6    14.14661   22.33858   49.83809
      C    C7    19.67316    6.61588   13.75511
      C    C8    15.39904   21.14658   48.50651
      C    C9    19.36116    5.32900   11.62173
      C    C10    16.88510   19.92058   46.89615
      H    H11    19.01230    4.32798    9.70201
      H    H12    18.17587   18.97458   45.39810
      C    C13    19.72798    7.82624   14.42906
      C    C14    14.88701   22.33758   48.99797
      C    C15    19.44125    6.55935   12.32713
      C    C16    16.36345   21.13058   47.42816
      C    C17    19.09275    5.30856   10.23887
      C    C18    17.79151   19.93958   45.81781
      H    H19    19.77225   10.35007   15.50113
      H    H20    14.03431   24.83058   49.75881
      C    C21    19.56128    9.08051   13.72433
      C    C22    15.30644   23.61158   48.45149
      C    C23    19.28945    7.79576   11.58968
      C    C24    16.81871   22.38758   46.87161
      C    C25    19.60448   10.33472   14.39453
      C    C26    14.78920   24.84658   48.93247
      C    C27    18.92584    6.50168    9.49351
      C    C28    18.24353   21.15358   45.24437
      C    C29    19.35475    9.05492   12.29014
      C    C30    16.29107   23.62658   47.38962
      C    C31    19.05245    7.76721   10.16157
      C    C32    17.78020   22.39958   45.78909
      H    H33    18.78686    9.02951    8.35268
      H    H34    18.99549   23.71258   44.47185
      C    C35    19.45329   11.54268   13.67696
      C    C36    15.22922   26.07458   48.38903
      C    C37    19.20561   10.29670   11.56530
      C    C38    16.73808   24.88858   46.84318
      H    H39    19.49746   12.52033   14.22167
      H    H40    14.81530   27.03658   48.78612
      C    C41    18.93374    9.03082    9.46140
      C    C42    18.22609   23.68258   45.28299
      C    C43    19.25957   11.52717   12.27916
      C    C44    16.19413   26.09858   47.35947
      C    C45    19.01261   10.24225   10.13420
      C    C46    17.73006   24.87458   45.79244
      H    H47    19.14500   12.48527   11.70915
      H    H48    16.54717   27.07258   46.93205
      H    H49    18.93030   11.20771    9.57188
      H    H50    18.09728   25.85558   45.39509
      C    C51    18.47148    6.41938    8.03782
      C    C52    19.09076   21.11358   43.97439
      H    H53    16.39224    5.94680    8.60830
      H    H54    17.34855   20.63458   42.70660
      H    H55    18.69594    5.39261    7.62687
      H    H56    19.57057   20.09758   43.86921
      H    H57    16.72369    7.71642    8.40808
      H    H58    17.67949   22.40758   42.87528
      H    H59    19.02271    7.15700    7.38302
      H    H60    19.93187   21.86658   44.00744
      C    C61    16.93055    6.69962    7.96283
      C    C62    18.17401   21.40258   42.73579
      O    O63    14.38619    8.22001    6.33639
      O    O64    17.81022   22.97858   39.76622
      C    C65    16.34421    6.64979    6.50833
      C    C66    18.93740   21.39558   41.36390
      C    C67    14.86333    7.03824    6.53847
      C    C68    17.97467   21.78958   40.24032
      H    H69    16.88078    7.38822    5.84938
      H    H70    19.77319   22.14958   41.38224
      H    H71    16.47149    5.61407    6.07906
      H    H72    19.37049   20.37158   41.17146
      O    O73    14.05010    5.95879    6.88404
      O    O74    17.21554   20.70458   39.80207
      H    H75    13.09524    6.41573    6.91920
      H    H76    16.57914   21.16458   39.09132
      C    C77    26.00300   11.72700    2.84230
      C    C78    26.00300   11.72700   32.68030
      C    C79    26.00300   11.72700    7.10430
      C    C80    26.00300   11.72700   36.94230
      C    C81    26.00300   11.72700   11.36730
      C    C82    26.00300   11.72700   41.20530
      C    C83    26.00300   11.72700   15.62930
      C    C84    26.00300   11.72700   45.46830
      C    C85    26.00300   11.72700   19.89230
      C    C86    26.00300   11.72700   49.73030
      C    C87    26.00300   11.72700   24.15530
      C    C88    26.00300   11.72700   53.99330
      C    C89    26.00300   11.72700   28.41730
      C    C90    26.00300   12.95800    3.55230
      C    C91    26.00300   12.95800   33.39030
      C    C92    26.00300   12.95800    7.81530
      C    C93    26.00300   12.95800   37.65330
      C    C94    26.00300   12.95800   12.07730
      C    C95    26.00300   12.95800   41.91530
      C    C96    26.00300   12.95800   16.34030
      C    C97    26.00300   12.95800   46.17830
      C    C98    26.00300   12.95800   20.60230
      C    C99    26.00300   12.95800   50.44130
      C    C100    26.00300   12.95800   24.86530
      C    C101    26.00300   12.95800   54.70330
      C    C102    26.00300   12.95800   29.12830
      C    C103    26.00300   11.72700    1.42130
      C    C104    26.00300   11.72700   31.25930
      C    C105    26.00300   11.72700    5.68330
      C    C106    26.00300   11.72700   35.52230
      C    C107    26.00300   11.72700    9.94630
      C    C108    26.00300   11.72700   39.78430
      C    C109    26.00300   11.72700   14.20930
      C    C110    26.00300   11.72700   44.04730
      C    C111    26.00300   11.72700   18.47130
      C    C112    26.00300   11.72700   48.30930
      C    C113    26.00300   11.72700   22.73430
      C    C114    26.00300   11.72700   52.57230
      C    C115    26.00300   11.72700   26.99630
      C    C116    26.00300   14.18800    2.84230
      C    C117    26.00300   14.18800   32.68030
      C    C118    26.00300   14.18800    7.10430
      C    C119    26.00300   14.18800   36.94230
      C    C120    26.00300   14.18800   11.36730
      C    C121    26.00300   14.18800   41.20530
      C    C122    26.00300   14.18800   15.62930
      C    C123    26.00300   14.18800   45.46830
      C    C124    26.00300   14.18800   19.89230
      C    C125    26.00300   14.18800   49.73030
      C    C126    26.00300   14.18800   24.15530
      C    C127    26.00300   14.18800   53.99330
      C    C128    26.00300   14.18800   28.41730
      C    C129    26.00300   15.41900    3.55230
      C    C130    26.00300   15.41900   33.39030
      C    C131    26.00300   15.41900    7.81530
      C    C132    26.00300   15.41900   37.65330
      C    C133    26.00300   15.41900   12.07730
      C    C134    26.00300   15.41900   41.91530
      C    C135    26.00300   15.41900   16.34030
      C    C136    26.00300   15.41900   46.17830
      C    C137    26.00300   15.41900   20.60230
      C    C138    26.00300   15.41900   50.44130
      C    C139    26.00300   15.41900   24.86530
      C    C140    26.00300   15.41900   54.70330
      C    C141    26.00300   15.41900   29.12830
      C    C142    26.00300   12.95800    0.71030
      C    C143    26.00300   12.95800   30.54930
      C    C144    26.00300   12.95800    4.97330
      C    C145    26.00300   12.95800   34.81130
      C    C146    26.00300   12.95800    9.23630
      C    C147    26.00300   12.95800   39.07430
      C    C148    26.00300   12.95800   13.49830
      C    C149    26.00300   12.95800   43.33630
      C    C150    26.00300   12.95800   17.76130
      C    C151    26.00300   12.95800   47.59930
      C    C152    26.00300   12.95800   22.02330
      C    C153    26.00300   12.95800   51.86130
      C    C154    26.00300   12.95800   26.28630
      C    C155    26.00300   14.18800    1.42130
      C    C156    26.00300   14.18800   31.25930
      C    C157    26.00300   14.18800    5.68330
      C    C158    26.00300   14.18800   35.52230
      C    C159    26.00300   14.18800    9.94630
      C    C160    26.00300   14.18800   39.78430
      C    C161    26.00300   14.18800   14.20930
      C    C162    26.00300   14.18800   44.04730
      C    C163    26.00300   14.18800   18.47130
      C    C164    26.00300   14.18800   48.30930
      C    C165    26.00300   14.18800   22.73430
      C    C166    26.00300   14.18800   52.57230
      C    C167    26.00300   14.18800   26.99630
      C    C168    26.00300   16.64900    2.84230
      C    C169    26.00300   16.64900   32.68030
      C    C170    26.00300   16.64900    7.10430
      C    C171    26.00300   16.64900   36.94230
      C    C172    26.00300   16.64900   11.36730
      C    C173    26.00300   16.64900   41.20530
      C    C174    26.00300   16.64900   15.62930
      C    C175    26.00300   16.64900   45.46830
      C    C176    26.00300   16.64900   19.89230
      C    C177    26.00300   16.64900   49.73030
      C    C178    26.00300   16.64900   24.15530
      C    C179    26.00300   16.64900   53.99330
      C    C180    26.00300   16.64900   28.41730
      C    C181    26.00300   17.88000    3.55230
      C    C182    26.00300   17.88000   33.39030
      C    C183    26.00300   17.88000    7.81530
      C    C184    26.00300   17.88000   37.65330
      C    C185    26.00300   17.88000   12.07730
      C    C186    26.00300   17.88000   41.91530
      C    C187    26.00300   17.88000   16.34030
      C    C188    26.00300   17.88000   46.17830
      C    C189    26.00300   17.88000   20.60230
      C    C190    26.00300   17.88000   50.44130
      C    C191    26.00300   17.88000   24.86530
      C    C192    26.00300   17.88000   54.70330
      C    C193    26.00300   17.88000   29.12830
      C    C194    26.00300   15.41900    0.71030
      C    C195    26.00300   15.41900   30.54930
      C    C196    26.00300   15.41900    4.97330
      C    C197    26.00300   15.41900   34.81130
      C    C198    26.00300   15.41900    9.23630
      C    C199    26.00300   15.41900   39.07430
      C    C200    26.00300   15.41900   13.49830
      C    C201    26.00300   15.41900   43.33630
      C    C202    26.00300   15.41900   17.76130
      C    C203    26.00300   15.41900   47.59930
      C    C204    26.00300   15.41900   22.02330
      C    C205    26.00300   15.41900   51.86130
      C    C206    26.00300   15.41900   26.28630
      C    C207    26.00300   16.64900    1.42130
      C    C208    26.00300   16.64900   31.25930
      C    C209    26.00300   16.64900    5.68330
      C    C210    26.00300   16.64900   35.52230
      C    C211    26.00300   16.64900    9.94630
      C    C212    26.00300   16.64900   39.78430
      C    C213    26.00300   16.64900   14.20930
      C    C214    26.00300   16.64900   44.04730
      C    C215    26.00300   16.64900   18.47130
      C    C216    26.00300   16.64900   48.30930
      C    C217    26.00300   16.64900   22.73430
      C    C218    26.00300   16.64900   52.57230
      C    C219    26.00300   16.64900   26.99630
      C    C220    26.00300   19.11000    2.84230
      C    C221    26.00300   19.11000   32.68030
      C    C222    26.00300   19.11000    7.10430
      C    C223    26.00300   19.11000   36.94230
      C    C224    26.00300   19.11000   11.36730
      C    C225    26.00300   19.11000   41.20530
      C    C226    26.00300   19.11000   15.62930
      C    C227    26.00300   19.11000   45.46830
      C    C228    26.00300   19.11000   19.89230
      C    C229    26.00300   19.11000   49.73030
      C    C230    26.00300   19.11000   24.15530
      C    C231    26.00300   19.11000   53.99330
      C    C232    26.00300   19.11000   28.41730
      C    C233    26.00300   17.88000    0.71030
      C    C234    26.00300   17.88000   30.54930
      C    C235    26.00300   17.88000    4.97330
      C    C236    26.00300   17.88000   34.81130
      C    C237    26.00300   17.88000    9.23630
      C    C238    26.00300   17.88000   39.07430
      C    C239    26.00300   17.88000   13.49830
      C    C240    26.00300   17.88000   43.33630
      C    C241    26.00300   17.88000   17.76130
      C    C242    26.00300   17.88000   47.59930
      C    C243    26.00300   17.88000   22.02330
      C    C244    26.00300   17.88000   51.86130
      C    C245    26.00300   17.88000   26.28630
      C    C246    26.00300   19.11000    1.42130
      C    C247    26.00300   19.11000   31.25930
      C    C248    26.00300   19.11000    5.68330
      C    C249    26.00300   19.11000   35.52230
      C    C250    26.00300   19.11000    9.94630
      C    C251    26.00300   19.11000   39.78430
      C    C252    26.00300   19.11000   14.20930
      C    C253    26.00300   19.11000   44.04730
      C    C254    26.00300   19.11000   18.47130
      C    C255    26.00300   19.11000   48.30930
      C    C256    26.00300   19.11000   22.73430
      C    C257    26.00300   19.11000   52.57230
      C    C258    26.00300   19.11000   26.99630
      H    H259    26.00300   10.78300    3.38730
      H    H260    26.00300   10.78300   33.22530
      H    H261    26.00300   10.78300    7.64930
      H    H262    26.00300   10.78300   37.48730
      H    H263    26.00300   10.78300   11.91230
      H    H264    26.00300   10.78300   41.75030
      H    H265    26.00300   10.78300   16.17430
      H    H266    26.00300   10.78300   46.01330
      H    H267    26.00300   10.78300   20.43730
      H    H268    26.00300   10.78300   50.27530
      H    H269    26.00300   10.78300   24.70030
      H    H270    26.00300   10.78300   54.53830
      H    H271    26.00300   10.78300   28.96230
      H    H272    26.00300   10.78300    0.87630
      H    H273    26.00300   10.78300   30.71430
      H    H274    26.00300   10.78300    5.13830
      H    H275    26.00300   10.78300   34.97730
      H    H276    26.00300   10.78300    9.40130
      H    H277    26.00300   10.78300   39.23930
      H    H278    26.00300   10.78300   13.66430
      H    H279    26.00300   10.78300   43.50230
      H    H280    26.00300   10.78300   17.92630
      H    H281    26.00300   10.78300   47.76430
      H    H282    26.00300   10.78300   22.18930
      H    H283    26.00300   10.78300   52.02730
      H    H284    26.00300   10.78300   26.45130
      H    H285    26.00300   20.05400    3.38730
      H    H286    26.00300   20.05400   33.22530
      H    H287    26.00300   20.05400    7.64930
      H    H288    26.00300   20.05400   37.48730
      H    H289    26.00300   20.05400   11.91230
      H    H290    26.00300   20.05400   41.75030
      H    H291    26.00300   20.05400   16.17430
      H    H292    26.00300   20.05400   46.01330
      H    H293    26.00300   20.05400   20.43730
      H    H294    26.00300   20.05400   50.27530
      H    H295    26.00300   20.05400   24.70030
      H    H296    26.00300   20.05400   54.53830
      H    H297    26.00300   20.05400   28.96230
      H    H298    26.00300   20.05400    0.87630
      H    H299    26.00300   20.05400   30.71430
      H    H300    26.00300   20.05400    5.13830
      H    H301    26.00300   20.05400   34.97730
      H    H302    26.00300   20.05400    9.40130
      H    H303    26.00300   20.05400   39.23930
      H    H304    26.00300   20.05400   13.66430
      H    H305    26.00300   20.05400   43.50230
      H    H306    26.00300   20.05400   17.92630
      H    H307    26.00300   20.05400   47.76430
      H    H308    26.00300   20.05400   22.18930
      H    H309    26.00300   20.05400   52.02730
      H    H310    26.00300   20.05400   26.45130
      H    H311    23.33827   18.86259   33.40860
      H    H312    23.05033   16.63009   32.33267
      H    H313    22.90864   21.35345   33.42340
      C    C314    22.74855   19.34426   32.58668
      C    C315    22.46577   17.09774   31.49936
      H    H316    22.09516   15.19410   30.47761
      C    C317    22.51892   20.71153   32.59270
      C    C318    22.25917   18.50356   31.51438
      C    C319    21.93987   16.30349   30.46140
      H    H320    21.90675   23.37417   32.35483
      C    C321    21.78450   21.34865   31.51859
      C    C322    21.53808   19.11222   30.41657
      C    C323    21.52824   22.74804   31.50637
      C    C324    21.21834   16.86916   29.38142
      C    C325    21.30662   20.53588   30.41935
      C    C326    21.03400   18.29309   29.33293
      H    H327    19.97710   18.33932   27.37925
      C    C328    20.82203   23.34422   30.43803
      C    C329    20.58872   21.15611   29.32867
      H    H330    20.63621   24.44819   30.44244
      C    C331    20.34149   18.95028   28.24225
      C    C332    20.35963   22.56079   29.35912
      C    C333    20.13325   20.32253   28.23833
      H    H334    19.80395   23.03380   28.50853
      H    H335    19.60612   20.81196   27.37943
      C    C336    20.52900   15.94971   28.37708
      H    H337    18.90997   15.45106   29.79204
      H    H338    21.00474   14.92645   28.40803
      H    H339    18.55757   16.87767   28.73274
      H    H340    20.64111   16.32550   27.31741
      C    C341    19.00693   15.84183   28.73797
      O    O342    15.81434   15.75270   27.62884
      C    C343    18.18556   14.92357   27.76636
      C    C344    16.70271   14.97222   28.14531
      H    H345    18.28310   15.29500   26.70809
      H    H346    18.57170   13.86432   27.82052
      O    O347    16.40497   14.09925   29.19166
      H    H348    15.38049   14.31000   29.35838
      H    H349     7.62457   13.31200   27.46804
      H    H350     8.88802   12.09400   25.69591
      H    H351     6.79876   15.48400   28.46284
      C    C352     7.87965   14.29200   26.98860
      C    C353     9.15847   13.06600   25.20920
      H    H354    10.25774   12.12000   23.56427
      C    C355     7.43131   15.48300   27.53877
      C    C356     8.70612   14.27600   25.79999
      C    C357     9.92737   13.08500   24.02767
      H    H358     6.67765   17.97600   28.39782
      C    C359     7.78164   16.75700   26.94447
      C    C360     9.08959   15.53300   25.19293
      C    C361     7.32625   17.99200   27.48568
      C    C362    10.30616   14.29900   23.40344
      C    C363     8.62958   16.77200   25.77056
      C    C364     9.91205   15.54500   24.00135
      H    H365    10.95783   16.85800   22.54588
      C    C366     7.69679   19.22000   26.89268
      C    C367     9.00610   18.03400   25.17454
      H    H368     7.33493   20.18200   27.33644
      C    C369    10.29296   16.82800   23.44470
      C    C370     8.52909   19.24400   25.75325
      C    C371     9.86329   18.02000   24.00998
      H    H372     8.82744   20.21800   25.28600
      H    H373    10.17877   19.00100   23.57165
      C    C374    10.99179   14.25900   22.04051
      H    H375     9.10811   13.78000   20.99440
      H    H376    11.45520   13.24300   21.87767
      H    H377     9.45713   15.55300   21.12151
      H    H378    11.83125   15.01200   21.97005
      C    C379     9.93157   14.54800   20.92202
      O    O380     9.20814   16.12400   18.01968
      C    C381    10.52155   14.54100   19.46815
      C    C382     9.42972   14.93500   18.46941
      H    H383    11.35336   15.29500   19.38453
      H    H384    10.92858   13.51700   19.22358
      O    O385     8.62285   13.85000   18.12691
      H    H386     7.90461   14.31000   17.49897
      O    O387    -6.00802   -7.35262   -1.61876
      H    H388    -6.08861   -8.26716   -1.88959
      H    H389    -6.42157   -6.85591   -2.32479
      O    O390    -7.87621   -5.57471    0.26216
      H    H391    -8.65200   -6.05467    0.55202
      H    H392    -7.22492   -6.25415    0.08778
      O    O393    -3.85547   -1.16870   -0.95792
      H    H394    -4.31732   -1.93997   -0.62921
      H    H395    -3.04291   -1.14209   -0.45268
      O    O396    -7.62914    1.11711   -1.33752
      H    H397    -8.24799    1.57286   -1.90808
      H    H398    -6.77396    1.27225   -1.73855
      O    O399    -8.43531   -2.89900    0.26918
      H    H400    -8.50449   -3.84000    0.10809
      H    H401    -7.67333   -2.80885    0.84144
      O    O402    -6.76280   -3.99897   -3.94433
      H    H403    -7.38108   -3.53403   -4.50806
      H    H404    -6.25048   -3.30622   -3.52738
      O    O405    -1.76996   -1.03936    2.46441
      H    H406    -2.45361   -0.36945    2.45608
      H    H407    -1.23053   -0.84130    1.69890
      O    O408    -4.23408    0.80505    1.17893
      H    H409    -4.22137    0.40128    0.31115
      H    H410    -4.78656    1.57978    1.07507
      O    O411    -2.93954   -2.47333   -3.73206
      H    H412    -3.04991   -3.41589   -3.60711
      H    H413    -2.94272   -2.11176   -2.84578
      O    O414    -4.83554   -4.29197    2.50719
      H    H415    -4.41866   -4.50595    1.67253
      H    H416    -4.11156   -4.03469    3.07805
      O    O417    -7.39751   -6.84680   -4.37581
      H    H418    -8.32459   -6.91306   -4.14696
      H    H419    -7.24503   -5.90878   -4.49028
      O    O420    -0.88933   -5.89324    2.59881
      H    H421    -1.71747   -5.82393    2.12383
      H    H422    -0.29428   -5.30781    2.13040
      O    O423    -3.36779   -5.28477   -3.87228
      H    H424    -3.98654   -5.62281   -4.51965
      H    H425    -3.38534   -5.92879   -3.16436
      O    O426    -3.92513   -9.10631    3.54430
      H    H427    -4.33801   -8.28094    3.79830
      H    H428    -4.65753   -9.69181    3.35194
      O    O429    -3.23512    0.93962    4.23240
      H    H430    -3.71206    1.74684    4.03966
      H    H431    -3.91894    0.28745    4.38502
      O    O432    -5.19132   -6.04608   -6.86501
      H    H433    -4.75199   -6.88384   -7.01122
      H    H434    -4.47847   -5.41314   -6.77859
      O    O435    -7.08178   -1.10648   -2.89688
      H    H436    -6.64219   -0.36404   -3.31134
      H    H437    -7.14309   -0.86382   -1.97299
      O    O438     0.34480    0.70082    9.30154
      H    H439     0.82077    1.17910    9.98044
      H    H440     0.96552    0.63256    8.57609
      O    O441    -0.25187   -2.10790    6.46154
      H    H442    -0.12557   -2.34671    5.54326
      H    H443    -0.20974   -2.93945    6.93375
      O    O444    -6.39020    1.59490    5.03102
      H    H445    -5.87573    1.50570    5.83326
      H    H446    -7.23329    1.94087    5.32381
      O    O447    -4.41476    1.88043   -5.54058
      H    H448    -4.57465    1.59073   -4.64240
      H    H449    -4.58009    1.10445   -6.07606
      O    O450    -4.71215   -0.61081   -6.98078
      H    H451    -5.40563   -0.61308   -7.64055
      H    H452    -3.96986   -1.03488   -7.41136
      O    O453    -5.14715    1.01546   -2.90593
      H    H454    -4.69146    0.23440   -2.59207
      H    H455    -4.80790    1.72614   -2.36181
      O    O456    -6.24262   -8.49439    8.12228
      H    H457    -5.91728   -9.32802    7.78250
      H    H458    -5.45459   -7.97154    8.27011
      O    O459    -5.60382   -8.95262   -4.38361
      H    H460    -6.20293   -8.22904   -4.56725
      H    H461    -5.05586   -9.01494   -5.16597
      O    O462    -6.41182   -7.72569    1.74179
      H    H463    -7.14371   -7.21701    2.09080
      H    H464    -6.80939   -8.54270    1.44067
      O    O465    -2.59637   -4.74660    0.60133
      H    H466    -1.87646   -4.25107    0.21094
      H    H467    -2.79819   -5.42481   -0.04328
      O    O468    -7.21449   -4.67569    6.48823
      H    H469    -7.28076   -5.59612    6.23399
      H    H470    -7.84398   -4.57815    7.20269
      O    O471    -4.42054   -8.98084   -6.95952
      H    H472    -3.53258   -8.66911   -7.13438
      H    H473    -4.45003   -9.85361   -7.35146
      O    O474    -8.42448   -2.80847   -6.28070
      H    H475    -8.08291   -2.06424   -6.77637
      H    H476    -9.25321   -2.49535   -5.91822
      O    O477    -7.28282   -1.85363    6.23861
      H    H478    -7.26837   -2.78554    6.02050
      H    H479    -7.99031   -1.76766    6.87759
      O    O480    -2.14911   -7.66965   -7.49153
      H    H481    -2.23274   -7.23823   -8.34189
      H    H482    -1.42969   -7.20982   -7.05885
      O    O483    -1.07170   -5.21290    5.58547
      H    H484    -1.79688   -4.62002    5.38841
      H    H485    -0.54415   -5.22055    4.78680
      O    O486    -1.12039   -0.81543   -4.76332
      H    H487    -1.76277   -1.46986   -4.48894
      H    H488    -1.50732   -0.40992   -5.53925
      O    O489    -5.54174   -3.48688   -0.91615
      H    H490    -5.18936   -4.08407   -1.57601
      H    H491    -6.42551   -3.81246   -0.74532
      O    O492    -7.84943   -0.21188    3.33266
      H    H493    -7.20521   -0.00594    4.01000
      H    H494    -7.48649   -0.97304    2.87974
      O    O495    -6.57622   -2.20864    2.05040
      H    H496    -5.93400   -2.90933    2.16362
      H    H497    -6.05129   -1.42880    1.87009
      O    O498    -2.73065   -1.92378   -8.22568
      H    H499    -2.95689   -2.64074   -7.63322
      H    H500    -3.12103   -2.17254   -9.06351
      O    O501    -4.80246   -1.40915    5.25401
      H    H502    -4.46684   -0.82248    5.93180
      H    H503    -5.72243   -1.53988    5.48379
      O    O504    -3.14902   -4.00659   -6.56427
      H    H505    -3.43685   -3.54532   -5.77648
      H    H506    -2.35381   -4.46681   -6.29584
      O    O507    -7.94622   -0.45115   -7.97135
      H    H508    -7.84503   -0.65475   -8.90115
      H    H509    -8.84605   -0.70532   -7.76657
      O    O510    -8.79804   -8.47344    4.01029
      H    H511    -8.29952   -7.99886    4.67548
      H    H512    -8.65575   -9.39709    4.21730
      O    O513    -3.29916   -7.01333   -1.70073
      H    H514    -4.24014   -6.99831   -1.52596
      H    H515    -2.98475   -7.79973   -1.25470
      O    O516    -1.29660    0.15756   -0.02531
      H    H517    -1.17186    0.98067    0.44708
      H    H518    -0.43004   -0.05337   -0.37289
      O    O519    -5.98255   -2.45673    8.78251
      H    H520    -6.58874   -2.43357    8.04208
      H    H521    -6.28714   -3.18843    9.31923
      O    O522    -4.55252    1.27130    7.39345
      H    H523    -3.60034    1.18710    7.34347
      H    H524    -4.69969    1.93547    8.06683
      O    O525    -1.66160    0.65072   -7.10736
      H    H526    -1.94745    0.23723   -7.92194
      H    H527    -1.85964    1.57949   -7.22731
      O    O528    -6.95660   -4.29395   -8.06260
      H    H529    -7.50559   -3.84702   -7.41833
      H    H530    -6.33467   -4.79902   -7.53883
      O    O531    -2.90311   -2.93974    7.86962
      H    H532    -2.16216   -2.60216    7.36637
      H    H533    -3.66584   -2.77053    7.31660
      O    O534    -8.77632   -6.31110   -8.91836
      H    H535    -8.25576   -7.02619   -9.28425
      H    H536    -8.12948   -5.67251   -8.61831
      O    O537    -4.22854   -4.88826    6.40515
      H    H538    -3.81444   -4.73375    7.25419
      H    H539    -5.16344   -4.76273    6.56772
      O    O540    -3.75632   -7.54864    8.40906
      H    H541    -3.17425   -8.30341    8.32111
      H    H542    -3.58015   -7.01790    7.63221
      O    O543    -7.13063   -7.20459    5.75852
      H    H544    -7.01101   -7.80048    6.49801
      H    H545    -6.27123   -7.16762    5.33865
      O    O546    -4.79184   -6.65087    4.33477
      H    H547    -5.31832   -6.12661    3.73129
      H    H548    -4.44870   -6.01813    4.96575
      O    O549    -8.76005    2.60421    5.74918
      H    H550    -8.83418    3.50773    6.05641
      H    H551    -9.66217    2.28540    5.72138
      O    O552    -8.21152    1.77007   -6.62819
      H    H553    -7.31644    2.10856   -6.60631
      H    H554    -8.17976    1.04801   -7.25576
      O    O555    -1.23209    0.30043    6.07843
      H    H556    -1.83189    0.35969    5.33482
      H    H557    -1.10270   -0.63907    6.20812
      O    O558     0.00806   -1.95779   -8.58460
      H    H559    -0.82265   -1.89012   -8.11387
      H    H560     0.18524   -1.06737   -8.88791
      O    O561    -0.53630   -5.21304   -6.08118
      H    H562     0.22560   -4.64337   -5.97521
      H    H563    -0.52086   -5.78032   -5.31035
      O    O564     0.46970   -4.35803   -1.23698
      H    H565     0.84058   -5.14130   -1.64339
      H    H566     1.10989   -3.66912   -1.41525
      O    O567    -2.54692   -2.97437    4.17605
      H    H568    -3.36094   -2.54465    4.43863
      H    H569    -2.13950   -2.36253    3.56295
      O    O570    -0.48438   -4.91960   -8.92392
      H    H571    -0.20949   -4.01171   -9.05200
      H    H572    -0.67330   -4.98335   -7.98773
      O    O573    -0.58784   -6.98270   -3.93098
      H    H574    -0.96348   -7.74991   -4.36285
      H    H575    -1.31753   -6.60043   -3.44349
      O    O576    -1.19788   -7.83555    5.70297
      H    H577    -1.42927   -8.06427    4.80277
      H    H578    -0.93743   -6.91559    5.65746
      O    O579    -1.31275   -8.75695   -0.63026
      H    H580    -0.78900   -9.25069   -1.26124
      H    H581    -0.72681   -8.62192    0.11450
      O    O582    -1.13378   -8.67297    2.89170
      H    H583    -2.08351   -8.70661    3.00620
      H    H584    -0.95248   -7.76295    2.65667
      O    O585    -2.48932    1.77749   -2.29712
      H    H586    -1.89341    1.45595   -2.97368
      H    H587    -2.23150    1.30467   -1.50580
      O    O588     0.37796    1.78468    4.25397
      H    H589    -0.11621    2.18157    3.53669
      H    H590    -0.23071    1.15960    4.64770
      O    O591    -1.93810    2.42702    1.53265
      H    H592    -2.39780    3.17860    1.15845
      H    H593    -2.56685    1.70767    1.47413
      O    O594    -8.76897    1.62669    1.53436
      H    H595    -8.48119    1.37212    0.65766
      H    H596    -8.25665    1.07443    2.12492
      O    O597    -8.70174    2.54830    8.90118
      H    H598    -7.77501    2.31273    8.94478
      H    H599    -8.71670    3.37550    8.41978
      O    O600    -0.46723    2.09086   -4.10140
      H    H601    -0.29201    1.40463   -4.74530
      H    H602    -1.16508    2.61557   -4.49373
      O    O603    -2.13398    1.77529    8.72528
      H    H604    -1.34145    1.28021    8.51788
      H    H605    -1.84067    2.45430    9.33284
      O    O606    12.76633   -7.35262   -1.61876
      H    H607    12.68574   -8.26716   -1.88959
      H    H608    12.35278   -6.85591   -2.32479
      O    O609    10.89814   -5.57471    0.26216
      H    H610    10.12235   -6.05467    0.55202
      H    H611    11.54943   -6.25415    0.08778
      O    O612     4.91472   -5.26273    1.13974
      H    H613     4.08321   -5.51786    1.53939
      H    H614     5.52282   -5.19166    1.87553
      O    O615    14.91888   -1.16870   -0.95792
      H    H616    14.45703   -1.93997   -0.62921
      H    H617    15.73144   -1.14209   -0.45268
      O    O618     4.89485   -1.22872    1.33554
      H    H619     5.19765   -2.11895    1.15656
      H    H620     5.63921   -0.67170    1.10777
      O    O621     1.28722   -7.70198    0.80795
      H    H622     1.85883   -8.46976    0.80831
      H    H623     1.28737   -7.40310   -0.10139
      O    O624    11.14521    1.11711   -1.33752
      H    H625    10.52636    1.57286   -1.90808
      H    H626    12.00039    1.27225   -1.73855
      O    O627    10.33904   -2.89900    0.26918
      H    H628    10.26986   -3.84000    0.10809
      H    H629    11.10102   -2.80885    0.84144
      O    O630     7.34083   -8.75076    0.29034
      H    H631     7.84865   -8.25266    0.93084
      H    H632     7.87215   -9.52724    0.11427
      O    O633    12.01155   -3.99897   -3.94433
      H    H634    11.39327   -3.53403   -4.50806
      H    H635    12.52387   -3.30622   -3.52738
      O    O636     6.87472   -4.47138    2.73403
      H    H637     6.54166   -3.84449    3.37613
      H    H638     7.05139   -3.94520    1.95419
      O    O639     6.08663   -2.50330    4.54895
      H    H640     6.70403   -1.82820    4.26739
      H    H641     5.22594   -2.09451    4.45770
      O    O642     1.37987   -3.31332   -6.57037
      H    H643     1.00266   -2.82461   -7.30188
      H    H644     1.63717   -2.64079   -5.93972
      O    O645    17.00439   -1.03936    2.46441
      H    H646    16.32074   -0.36945    2.45608
      H    H647    17.54382   -0.84130    1.69890
      O    O648    14.54027    0.80505    1.17893
      H    H649    14.55298    0.40128    0.31115
      H    H650    13.98779    1.57978    1.07507
      O    O651    15.83481   -2.47333   -3.73206
      H    H652    15.72444   -3.41589   -3.60711
      H    H653    15.83163   -2.11176   -2.84578
      O    O654    13.93881   -4.29197    2.50719
      H    H655    14.35569   -4.50595    1.67253
      H    H656    14.66279   -4.03469    3.07805
      O    O657    11.37684   -6.84680   -4.37581
      H    H658    10.44976   -6.91306   -4.14696
      H    H659    11.52932   -5.90878   -4.49028
      O    O660    17.88502   -5.89324    2.59881
      H    H661    17.05688   -5.82393    2.12383
      H    H662    18.48007   -5.30781    2.13040
      O    O663    15.40656   -5.28477   -3.87228
      H    H664    14.78781   -5.62281   -4.51965
      H    H665    15.38901   -5.92879   -3.16436
      O    O666    14.84922   -9.10631    3.54430
      H    H667    14.43634   -8.28094    3.79830
      H    H668    14.11682   -9.69181    3.35194
      O    O669     6.98250   -6.32032   -1.59383
      H    H670     6.57820   -7.03260   -2.08924
      H    H671     7.06881   -6.66500   -0.70503
      O    O672     7.45067   -2.63357    0.57009
      H    H673     7.15350   -3.23902   -0.10913
      H    H674     8.40065   -2.59583    0.45902
      O    O675     5.69536   -9.54600    2.18607
      H    H676     6.24682   -9.43647    1.41140
      H    H677     6.20971   -9.17224    2.90159
      O    O678    15.53923    0.93962    4.23240
      H    H679    15.06229    1.74684    4.03966
      H    H680    14.85541    0.28745    4.38502
      O    O681     6.54251   -2.89540    7.22087
      H    H682     5.64537   -2.67140    7.46821
      H    H683     6.56780   -2.77190    6.27201
      O    O684    13.58303   -6.04608   -6.86501
      H    H685    14.02236   -6.88384   -7.01122
      H    H686    14.29588   -5.41314   -6.77859
      O    O687     5.36963   -6.02406    5.79660
      H    H688     5.23041   -5.15178    6.16534
      H    H689     4.48777   -6.36678    5.65140
      O    O690    11.69257   -1.10648   -2.89688
      H    H691    12.13216   -0.36404   -3.31134
      H    H692    11.63126   -0.86382   -1.97299
      O    O693     7.16767   -0.08189    8.00512
      H    H694     7.13921    0.32240    7.13796
      H    H695     7.00417   -1.01086    7.84228
      O    O696     3.68296   -7.42582   -4.09317
      H    H697     3.56272   -6.69961   -4.70504
      H    H698     3.37305   -8.19553   -4.57038
      O    O699    19.11915    0.70082    9.30154
      H    H700    19.59512    1.17910    9.98044
      H    H701    19.73987    0.63256    8.57609
      O    O702     1.32150   -4.25431    1.71370
      H    H703     1.39954   -4.11943    0.76927
      H    H704     1.93567   -4.96272    1.90651
      O    O705     2.56626   -2.55429   -1.87569
      H    H706     2.15907   -2.41283   -2.73033
      H    H707     3.45756   -2.83827   -2.07857
      O    O708    18.52248   -2.10790    6.46154
      H    H709    18.64878   -2.34671    5.54326
      H    H710    18.56461   -2.93945    6.93375
      O    O711    12.38415    1.59490    5.03102
      H    H712    12.89862    1.50570    5.83326
      H    H713    11.54106    1.94087    5.32381
      O    O714    14.35959    1.88043   -5.54058
      H    H715    14.19970    1.59073   -4.64240
      H    H716    14.19426    1.10445   -6.07606
      O    O717     6.83843    1.66029   -3.76342
      H    H718     6.66268    0.74384   -3.97664
      H    H719     5.98400    2.01902   -3.52364
      O    O720    14.06220   -0.61081   -6.98078
      H    H721    13.36872   -0.61308   -7.64055
      H    H722    14.80449   -1.03488   -7.41136
      O    O723    13.62720    1.01546   -2.90593
      H    H724    14.08289    0.23440   -2.59207
      H    H725    13.96645    1.72614   -2.36181
      O    O726     1.37745   -3.21289    4.25314
      H    H727     1.54056   -3.68236    3.43508
      H    H728     1.84270   -3.72054    4.91803
      O    O729    12.53173   -8.49439    8.12228
      H    H730    12.85707   -9.32802    7.78250
      H    H731    13.31976   -7.97154    8.27011
      O    O732     5.94075   -8.95896   -2.98268
      H    H733     5.71484   -9.17524   -2.07801
      H    H734     5.16000   -8.52611   -3.32808
      O    O735    13.17053   -8.95262   -4.38361
      H    H736    12.57142   -8.22904   -4.56725
      H    H737    13.71849   -9.01494   -5.16597
      O    O738     8.38067   -8.06040    7.68335
      H    H739     8.28503   -9.00093    7.53339
      H    H740     9.22387   -7.83889    7.28816
      O    O741    12.36253   -7.72569    1.74179
      H    H742    11.63064   -7.21701    2.09080
      H    H743    11.96496   -8.54270    1.44067
      O    O744     7.87443   -7.73895   -7.46395
      H    H745     7.30612   -8.18713   -8.09036
      H    H746     8.58333   -7.37967   -7.99744
      O    O747     2.95135   -3.83775    6.41272
      H    H748     2.56683   -4.47838    7.01102
      H    H749     3.26257   -3.13414    6.98220
      O    O750     9.10106   -6.99010    1.89358
      H    H751     9.46808   -7.46424    2.63972
      H    H752     8.91157   -6.11594    2.23442
      O    O753     6.89100   -7.94923    4.21201
      H    H754     6.58671   -7.07003    4.43704
      H    H755     7.84565   -7.88925    4.24775
      O    O756     5.41918   -3.74313   -5.19131
      H    H757     4.64541   -4.28337   -5.35144
      H    H758     6.14864   -4.26247   -5.52953
      O    O759    16.17798   -4.74660    0.60133
      H    H760    16.89789   -4.25107    0.21094
      H    H761    15.97616   -5.42481   -0.04328
      O    O762    11.55986   -4.67569    6.48823
      H    H763    11.49359   -5.59612    6.23399
      H    H764    10.93037   -4.57815    7.20269
      O    O765    14.35381   -8.98084   -6.95952
      H    H766    15.24177   -8.66911   -7.13438
      H    H767    14.32432   -9.85361   -7.35146
      O    O768     5.46292   -4.07509   -1.55343
      H    H769     5.98079   -4.87827   -1.60774
      H    H770     5.01132   -4.13718   -0.71175
      O    O771    10.34987   -2.80847   -6.28070
      H    H772    10.69144   -2.06424   -6.77637
      H    H773     9.52114   -2.49535   -5.91822
      O    O774     2.94737   -7.10896    5.35914
      H    H775     2.58887   -6.44357    5.94648
      H    H776     2.65283   -7.94060    5.73040
      O    O777     6.14869   -6.65053    8.24310
      H    H778     5.84870   -6.50482    7.34588
      H    H779     6.91981   -7.21000    8.15044
      O    O780    11.49153   -1.85363    6.23861
      H    H781    11.50598   -2.78554    6.02050
      H    H782    10.78404   -1.76766    6.87759
      O    O783    16.62524   -7.66965   -7.49153
      H    H784    16.54161   -7.23823   -8.34189
      H    H785    17.34466   -7.20982   -7.05885
      O    O786    17.70265   -5.21290    5.58547
      H    H787    16.97747   -4.62002    5.38841
      H    H788    18.23020   -5.22055    4.78680
      O    O789    17.65396   -0.81543   -4.76332
      H    H790    17.01158   -1.46986   -4.48894
      H    H791    17.26703   -0.40992   -5.53925
      O    O792    13.23261   -3.48688   -0.91615
      H    H793    13.58499   -4.08407   -1.57601
      H    H794    12.34884   -3.81246   -0.74532
      O    O795     9.31894   -2.72711   -3.50911
      H    H796    10.00605   -2.18019   -3.12835
      H    H797     8.53218   -2.18304   -3.47415
      O    O798     1.45818   -7.10983   -8.01740
      H    H799     2.32766   -6.82735   -7.73381
      H    H800     0.96721   -6.29624   -8.13252
      O    O801     8.62166   -5.72251   -3.89657
      H    H802     9.07794   -4.91199   -3.67055
      H    H803     8.27048   -6.04020   -3.06472
      O    O804    10.92492   -0.21188    3.33266
      H    H805    11.56914   -0.00594    4.01000
      H    H806    11.28786   -0.97304    2.87974
      O    O807    12.19813   -2.20864    2.05040
      H    H808    12.84035   -2.90933    2.16362
      H    H809    12.72306   -1.42880    1.87009
      O    O810    16.04370   -1.92378   -8.22568
      H    H811    15.81746   -2.64074   -7.63322
      H    H812    15.65332   -2.17254   -9.06351
      O    O813    13.97189   -1.40915    5.25401
      H    H814    14.30751   -0.82248    5.93180
      H    H815    13.05192   -1.53988    5.48379
      O    O816     1.82530    2.10291   -7.45124
      H    H817     2.18507    2.70184   -8.10551
      H    H818     1.68454    2.64890   -6.67773
      O    O819    15.62533   -4.00659   -6.56427
      H    H820    15.33750   -3.54532   -5.77648
      H    H821    16.42054   -4.46681   -6.29584
      O    O822     1.80949    0.36839    7.02300
      H    H823     1.91860   -0.57213    6.88254
      H    H824     1.15755    0.63387    6.37438
      O    O825     9.80075   -1.36002    8.42282
      H    H826     9.48044   -2.07909    8.96739
      H    H827     9.12658   -0.68451    8.49642
      O    O828     7.84217   -0.51397   -6.63387
      H    H829     7.83318    0.21900   -7.24942
      H    H830     6.92200   -0.76082   -6.54117
      O    O831     3.44283   -5.29248   -5.88919
      H    H832     2.83562   -4.55259   -5.87966
      H    H833     3.91776   -5.20255   -6.71537
      O    O834    10.82813   -0.45115   -7.97135
      H    H835    10.92932   -0.65475   -8.90115
      H    H836     9.92830   -0.70532   -7.76657
      O    O837     9.97631   -8.47344    4.01029
      H    H838    10.47483   -7.99886    4.67548
      H    H839    10.11860   -9.39709    4.21730
      O    O840     9.46994    2.06748   -3.27658
      H    H841     9.72409    2.02962   -4.19865
      H    H842     8.52118    1.94082   -3.28376
      O    O843    15.47519   -7.01333   -1.70073
      H    H844    14.53421   -6.99831   -1.52596
      H    H845    15.78960   -7.79973   -1.25470
      O    O846     5.45336   -5.33137   -8.14034
      H    H847     6.21969   -5.44323   -7.57779
      H    H848     5.53083   -6.02757   -8.79266
      O    O849     4.14803   -7.89886   -7.45705
      H    H850     4.22839   -8.84611   -7.34531
      H    H851     5.04001   -7.56817   -7.35098
      O    O852    17.47775    0.15756   -0.02531
      H    H853    17.60249    0.98067    0.44708
      H    H854    18.34431   -0.05337   -0.37289
      O    O855     4.94951    2.25068   -0.35359
      H    H856     5.68575    1.70222   -0.08274
      H    H857     5.33360    3.11628   -0.49299
      O    O858     1.83405   -1.68197   -4.47944
      H    H859     0.90803   -1.43985   -4.48890
      H    H860     2.29970   -0.85454   -4.60097
      O    O861     3.95533    1.43528    8.83497
      H    H862     4.75661    1.75649    9.24851
      H    H863     3.44052    1.07484    9.55696
      O    O864     8.05974    1.42371   -8.53104
      H    H865     8.85260    1.71259   -8.98286
      H    H866     7.54017    0.99292   -9.20979
      O    O867    12.79180   -2.45673    8.78251
      H    H868    12.18561   -2.43357    8.04208
      H    H869    12.48721   -3.18843    9.31923
      O    O870    14.22183    1.27130    7.39345
      H    H871    15.17401    1.18710    7.34347
      H    H872    14.07466    1.93547    8.06683
      O    O873    17.11275    0.65072   -7.10736
      H    H874    16.82690    0.23723   -7.92194
      H    H875    16.91471    1.57949   -7.22731
      O    O876     1.67511   -6.07737    7.77857
      H    H877     2.17902   -6.65664    8.35019
      H    H878     0.93586   -5.79335    8.31621
      O    O879     8.57748   -3.35595   -8.66680
      H    H880     8.47254   -3.97072   -7.94066
      H    H881     8.40990   -3.87936   -9.45050
      O    O882     8.72891   -4.67027    7.31212
      H    H883     7.96348   -4.10177    7.22759
      H    H884     8.91050   -4.96265    6.41895
      O    O885    11.81775   -4.29395   -8.06260
      H    H886    11.26876   -3.84702   -7.41833
      H    H887    12.43968   -4.79902   -7.53883
      O    O888    15.87124   -2.93974    7.86962
      H    H889    16.61219   -2.60216    7.36637
      H    H890    15.10851   -2.77053    7.31660
      O    O891     3.70742   -7.93441    8.67358
      H    H892     3.74796   -8.23302    9.58210
      H    H893     4.56197   -7.53365    8.51433
      O    O894     7.48526   -5.33486   -6.16607
      H    H895     7.90690   -5.50087   -5.32293
      H    H896     7.61035   -6.14483   -6.66056
      O    O897     5.64800   -9.35520    6.64103
      H    H898     5.11765   -9.84611    6.01336
      H    H899     6.31681   -8.92678    6.10682
      O    O900     9.99803   -6.31110   -8.91836
      H    H901    10.51859   -7.02619   -9.28425
      H    H902    10.64487   -5.67251   -8.61831
      O    O903    14.54581   -4.88826    6.40515
      H    H904    14.95991   -4.73375    7.25419
      H    H905    13.61091   -4.76273    6.56772
      O    O906    15.01803   -7.54864    8.40906
      H    H907    15.60010   -8.30341    8.32111
      H    H908    15.19420   -7.01790    7.63221
      O    O909     9.30733   -4.93621    4.37474
      H    H910     9.72614   -4.09293    4.20236
      H    H911     8.38820   -4.79900    4.14542
      O    O912    11.64372   -7.20459    5.75852
      H    H913    11.76334   -7.80048    6.49801
      H    H914    12.50312   -7.16762    5.33865
      O    O915    13.98251   -6.65087    4.33477
      H    H916    13.45603   -6.12661    3.73129
      H    H917    14.32565   -6.01813    4.96575
      O    O918     7.15807    1.36909    5.49051
      H    H919     6.62018    2.09370    5.17138
      H    H920     7.41147    0.89213    4.70025
      O    O921    10.01430    2.60421    5.74918
      H    H922     9.94017    3.50773    6.05641
      H    H923     9.11218    2.28540    5.72138
      O    O924    10.56283    1.77007   -6.62819
      H    H925    11.45791    2.10856   -6.60631
      H    H926    10.59459    1.04801   -7.25576
      O    O927     4.20244   -2.85723   -8.39949
      H    H928     4.63993   -2.31426   -7.74373
      H    H929     4.68722   -3.68253   -8.38985
      O    O930     1.41702   -0.06833   -0.94746
      H    H931     1.74733   -0.93622   -1.17960
      H    H932     1.84612    0.13753   -0.11697
      O    O933     6.01322   -1.73743   -3.28726
      H    H934     5.71277   -1.86093   -2.38687
      H    H935     5.90697   -2.59657   -3.69569
      O    O936     1.90605    0.79873    1.79070
      H    H937     1.46914    0.97881    2.62312
      H    H938     2.47381    1.55619    1.64887
      O    O939    17.54226    0.30043    6.07843
      H    H940    16.94246    0.35969    5.33482
      H    H941    17.67165   -0.63907    6.20812
      O    O942    18.78241   -1.95779   -8.58460
      H    H943    17.95170   -1.89012   -8.11387
      H    H944    18.95959   -1.06737   -8.88791
      O    O945    18.23805   -5.21304   -6.08118
      H    H946    18.99995   -4.64337   -5.97521
      H    H947    18.25349   -5.78032   -5.31035
      O    O948     1.73849   -6.68924   -1.85041
      H    H949     1.08337   -6.95808   -2.49444
      H    H950     2.57628   -6.79880   -2.30021
      O    O951    19.24405   -4.35803   -1.23698
      H    H952    19.61493   -5.14130   -1.64339
      H    H953    19.88424   -3.66912   -1.41525
      O    O954    16.22743   -2.97437    4.17605
      H    H955    15.41341   -2.54465    4.43863
      H    H956    16.63485   -2.36253    3.56295
      O    O957    18.28997   -4.91960   -8.92392
      H    H958    18.56486   -4.01171   -9.05200
      H    H959    18.10105   -4.98335   -7.98773
      O    O960    18.18651   -6.98270   -3.93098
      H    H961    17.81087   -7.74991   -4.36285
      H    H962    17.45682   -6.60043   -3.44349
      O    O963     2.77608   -6.30399    2.68992
      H    H964     3.14339   -6.39125    3.56953
      H    H965     2.20716   -7.06733    2.59061
      O    O966    17.57647   -7.83555    5.70297
      H    H967    17.34508   -8.06427    4.80277
      H    H968    17.83692   -6.91559    5.65746
      O    O969     2.32768   -9.39308    6.59577
      H    H970     1.43329   -9.42640    6.93514
      H    H971     2.86744   -9.19440    7.36089
      O    O972     0.95230   -9.47935   -5.90788
      H    H973     0.04870   -9.21633   -6.08271
      H    H974     1.43636   -9.20823   -6.68788
      O    O975    17.46160   -8.75695   -0.63026
      H    H976    17.98535   -9.25069   -1.26124
      H    H977    18.04754   -8.62192    0.11450
      O    O978    17.64057   -8.67297    2.89170
      H    H979    16.69084   -8.70661    3.00620
      H    H980    17.82187   -7.76295    2.65667
      O    O981    16.28503    1.77749   -2.29712
      H    H982    16.88094    1.45595   -2.97368
      H    H983    16.54285    1.30467   -1.50580
      O    O984     4.19129   -1.79072    7.85194
      H    H985     4.14825   -2.16143    8.73338
      H    H986     4.32239   -0.85296    7.99212
      O    O987     7.89189   -0.23476    3.45291
      H    H988     7.65103    0.03270    2.56596
      H    H989     8.83216   -0.06419    3.50800
      O    O990    19.15231    1.78468    4.25397
      H    H991    18.65814    2.18157    3.53669
      H    H992    18.54364    1.15960    4.64770
      O    O993     4.03009    1.15551    4.97172
      H    H994     3.43612    1.02398    5.71072
      H    H995     4.02248    0.31932    4.50593
      O    O996    16.83625    2.42702    1.53265
      H    H997    16.37655    3.17860    1.15845
      H    H998    16.20750    1.70767    1.47413
      O    O999     3.66132   -1.47866    3.92252
      H    H1000     2.93472   -2.09813    3.85512
      H    H1001     3.72223   -1.08459    3.05233
      O    O1002     7.26583    0.73584    0.70746
      H    H1003     7.78233    0.12458    0.18229
      H    H1004     7.91556    1.23872    1.19856
      O    O1005    10.00538    1.62669    1.53436
      H    H1006    10.29316    1.37212    0.65766
      H    H1007    10.51770    1.07443    2.12492
      O    O1008     1.94432    1.83878   -2.86780
      H    H1009     1.77652    1.20585   -2.16961
      H    H1010     1.07777    2.04472   -3.21838
      O    O1011     3.55059    0.53211   -5.42279
      H    H1012     3.02535    0.91291   -6.12659
      H    H1013     3.47504    1.15718   -4.70182
      O    O1014    10.07261    2.54830    8.90118
      H    H1015    10.99934    2.31273    8.94478
      H    H1016    10.05765    3.37550    8.41978
      O    O1017    18.30712    2.09086   -4.10140
      H    H1018    18.48234    1.40463   -4.74530
      H    H1019    17.60927    2.61557   -4.49373
      O    O1020     6.14988    2.48034   -6.54786
      H    H1021     6.88176    2.19627   -7.09548
      H    H1022     6.40925    2.24167   -5.65793
      O    O1023     5.31136   -1.40318   -6.54323
      H    H1024     4.68225   -0.93467   -5.99465
      H    H1025     5.42614   -2.24826   -6.10861
      O    O1026    16.64037    1.77529    8.72528
      H    H1027    17.43290    1.28021    8.51788
      H    H1028    16.93368    2.45430    9.33284
      O    O1029    31.54068   -7.35262   -1.61876
      H    H1030    31.46009   -8.26716   -1.88959
      H    H1031    31.12713   -6.85591   -2.32479
      O    O1032    29.67249   -5.57471    0.26216
      H    H1033    28.89670   -6.05467    0.55202
      H    H1034    30.32378   -6.25415    0.08778
      O    O1035    23.68907   -5.26273    1.13974
      H    H1036    22.85756   -5.51786    1.53939
      H    H1037    24.29717   -5.19166    1.87553
      O    O1038    33.69323   -1.16870   -0.95792
      H    H1039    33.23138   -1.93997   -0.62921
      H    H1040    34.50579   -1.14209   -0.45268
      O    O1041    23.66920   -1.22872    1.33554
      H    H1042    23.97200   -2.11895    1.15656
      H    H1043    24.41356   -0.67170    1.10777
      O    O1044    20.06157   -7.70198    0.80795
      H    H1045    20.63318   -8.46976    0.80831
      H    H1046    20.06172   -7.40310   -0.10139
      O    O1047    29.91956    1.11711   -1.33752
      H    H1048    29.30071    1.57286   -1.90808
      H    H1049    30.77474    1.27225   -1.73855
      O    O1050    29.11339   -2.89900    0.26918
      H    H1051    29.04421   -3.84000    0.10809
      H    H1052    29.87537   -2.80885    0.84144
      O    O1053    26.11518   -8.75076    0.29034
      H    H1054    26.62300   -8.25266    0.93084
      H    H1055    26.64650   -9.52724    0.11427
      O    O1056    30.78590   -3.99897   -3.94433
      H    H1057    30.16762   -3.53403   -4.50806
      H    H1058    31.29822   -3.30622   -3.52738
      O    O1059    25.64907   -4.47138    2.73403
      H    H1060    25.31601   -3.84449    3.37613
      H    H1061    25.82574   -3.94520    1.95419
      O    O1062    24.86098   -2.50330    4.54895
      H    H1063    25.47838   -1.82820    4.26739
      H    H1064    24.00029   -2.09451    4.45770
      O    O1065    20.15422   -3.31332   -6.57037
      H    H1066    19.77701   -2.82461   -7.30188
      H    H1067    20.41152   -2.64079   -5.93972
      O    O1068    35.77874   -1.03936    2.46441
      H    H1069    35.09509   -0.36945    2.45608
      H    H1070    36.31817   -0.84130    1.69890
      O    O1071    33.31462    0.80505    1.17893
      H    H1072    33.32733    0.40128    0.31115
      H    H1073    32.76214    1.57978    1.07507
      O    O1074    34.60916   -2.47333   -3.73206
      H    H1075    34.49879   -3.41589   -3.60711
      H    H1076    34.60598   -2.11176   -2.84578
      O    O1077    32.71316   -4.29197    2.50719
      H    H1078    33.13004   -4.50595    1.67253
      H    H1079    33.43714   -4.03469    3.07805
      O    O1080    30.15119   -6.84680   -4.37581
      H    H1081    29.22411   -6.91306   -4.14696
      H    H1082    30.30367   -5.90878   -4.49028
      O    O1083    36.65937   -5.89324    2.59881
      H    H1084    35.83123   -5.82393    2.12383
      H    H1085    37.25442   -5.30781    2.13040
      O    O1086    34.18091   -5.28477   -3.87228
      H    H1087    33.56216   -5.62281   -4.51965
      H    H1088    34.16336   -5.92879   -3.16436
      O    O1089    33.62357   -9.10631    3.54430
      H    H1090    33.21069   -8.28094    3.79830
      H    H1091    32.89117   -9.69181    3.35194
      O    O1092    25.75685   -6.32032   -1.59383
      H    H1093    25.35255   -7.03260   -2.08924
      H    H1094    25.84316   -6.66500   -0.70503
      O    O1095    26.22502   -2.63357    0.57009
      H    H1096    25.92785   -3.23902   -0.10913
      H    H1097    27.17500   -2.59583    0.45902
      O    O1098    24.46971   -9.54600    2.18607
      H    H1099    25.02117   -9.43647    1.41140
      H    H1100    24.98406   -9.17224    2.90159
      O    O1101    34.31358    0.93962    4.23240
      H    H1102    33.83664    1.74684    4.03966
      H    H1103    33.62976    0.28745    4.38502
      O    O1104    25.31686   -2.89540    7.22087
      H    H1105    24.41972   -2.67140    7.46821
      H    H1106    25.34215   -2.77190    6.27201
      O    O1107    32.35738   -6.04608   -6.86501
      H    H1108    32.79671   -6.88384   -7.01122
      H    H1109    33.07023   -5.41314   -6.77859
      O    O1110    24.14398   -6.02406    5.79660
      H    H1111    24.00476   -5.15178    6.16534
      H    H1112    23.26212   -6.36678    5.65140
      O    O1113    30.46692   -1.10648   -2.89688
      H    H1114    30.90651   -0.36404   -3.31134
      H    H1115    30.40561   -0.86382   -1.97299
      O    O1116    25.94202   -0.08189    8.00512
      H    H1117    25.91356    0.32240    7.13796
      H    H1118    25.77852   -1.01086    7.84228
      O    O1119    22.45731   -7.42582   -4.09317
      H    H1120    22.33707   -6.69961   -4.70504
      H    H1121    22.14740   -8.19553   -4.57038
      O    O1122    37.89350    0.70082    9.30154
      H    H1123    38.36947    1.17910    9.98044
      H    H1124    38.51422    0.63256    8.57609
      O    O1125    20.09585   -4.25431    1.71370
      H    H1126    20.17389   -4.11943    0.76927
      H    H1127    20.71002   -4.96272    1.90651
      O    O1128    21.34061   -2.55429   -1.87569
      H    H1129    20.93342   -2.41283   -2.73033
      H    H1130    22.23191   -2.83827   -2.07857
      O    O1131    37.29683   -2.10790    6.46154
      H    H1132    37.42313   -2.34671    5.54326
      H    H1133    37.33896   -2.93945    6.93375
      O    O1134    31.15850    1.59490    5.03102
      H    H1135    31.67297    1.50570    5.83326
      H    H1136    30.31541    1.94087    5.32381
      O    O1137    33.13394    1.88043   -5.54058
      H    H1138    32.97405    1.59073   -4.64240
      H    H1139    32.96861    1.10445   -6.07606
      O    O1140    25.61278    1.66029   -3.76342
      H    H1141    25.43703    0.74384   -3.97664
      H    H1142    24.75835    2.01902   -3.52364
      O    O1143    32.83655   -0.61081   -6.98078
      H    H1144    32.14307   -0.61308   -7.64055
      H    H1145    33.57884   -1.03488   -7.41136
      O    O1146    32.40155    1.01546   -2.90593
      H    H1147    32.85724    0.23440   -2.59207
      H    H1148    32.74080    1.72614   -2.36181
      O    O1149    20.15180   -3.21289    4.25314
      H    H1150    20.31491   -3.68236    3.43508
      H    H1151    20.61705   -3.72054    4.91803
      O    O1152    31.30608   -8.49439    8.12228
      H    H1153    31.63142   -9.32802    7.78250
      H    H1154    32.09411   -7.97154    8.27011
      O    O1155    24.71510   -8.95896   -2.98268
      H    H1156    24.48919   -9.17524   -2.07801
      H    H1157    23.93435   -8.52611   -3.32808
      O    O1158    31.94488   -8.95262   -4.38361
      H    H1159    31.34577   -8.22904   -4.56725
      H    H1160    32.49284   -9.01494   -5.16597
      O    O1161    27.15502   -8.06040    7.68335
      H    H1162    27.05938   -9.00093    7.53339
      H    H1163    27.99822   -7.83889    7.28816
      O    O1164    31.13688   -7.72569    1.74179
      H    H1165    30.40499   -7.21701    2.09080
      H    H1166    30.73931   -8.54270    1.44067
      O    O1167    26.64878   -7.73895   -7.46395
      H    H1168    26.08047   -8.18713   -8.09036
      H    H1169    27.35768   -7.37967   -7.99744
      O    O1170    21.72570   -3.83775    6.41272
      H    H1171    21.34118   -4.47838    7.01102
      H    H1172    22.03692   -3.13414    6.98220
      O    O1173    27.87541   -6.99010    1.89358
      H    H1174    28.24243   -7.46424    2.63972
      H    H1175    27.68592   -6.11594    2.23442
      O    O1176    25.66535   -7.94923    4.21201
      H    H1177    25.36106   -7.07003    4.43704
      H    H1178    26.62000   -7.88925    4.24775
      O    O1179    24.19353   -3.74313   -5.19131
      H    H1180    23.41976   -4.28337   -5.35144
      H    H1181    24.92299   -4.26247   -5.52953
      O    O1182    34.95233   -4.74660    0.60133
      H    H1183    35.67224   -4.25107    0.21094
      H    H1184    34.75051   -5.42481   -0.04328
      O    O1185    30.33421   -4.67569    6.48823
      H    H1186    30.26794   -5.59612    6.23399
      H    H1187    29.70472   -4.57815    7.20269
      O    O1188    33.12816   -8.98084   -6.95952
      H    H1189    34.01612   -8.66911   -7.13438
      H    H1190    33.09867   -9.85361   -7.35146
      O    O1191    24.23727   -4.07509   -1.55343
      H    H1192    24.75514   -4.87827   -1.60774
      H    H1193    23.78567   -4.13718   -0.71175
      O    O1194    29.12422   -2.80847   -6.28070
      H    H1195    29.46579   -2.06424   -6.77637
      H    H1196    28.29549   -2.49535   -5.91822
      O    O1197    21.72172   -7.10896    5.35914
      H    H1198    21.36322   -6.44357    5.94648
      H    H1199    21.42718   -7.94060    5.73040
      O    O1200    24.92304   -6.65053    8.24310
      H    H1201    24.62305   -6.50482    7.34588
      H    H1202    25.69416   -7.21000    8.15044
      O    O1203    30.26588   -1.85363    6.23861
      H    H1204    30.28033   -2.78554    6.02050
      H    H1205    29.55839   -1.76766    6.87759
      O    O1206    35.39959   -7.66965   -7.49153
      H    H1207    35.31596   -7.23823   -8.34189
      H    H1208    36.11901   -7.20982   -7.05885
      O    O1209    36.47700   -5.21290    5.58547
      H    H1210    35.75182   -4.62002    5.38841
      H    H1211    37.00455   -5.22055    4.78680
      O    O1212    36.42831   -0.81543   -4.76332
      H    H1213    35.78593   -1.46986   -4.48894
      H    H1214    36.04138   -0.40992   -5.53925
      O    O1215    32.00696   -3.48688   -0.91615
      H    H1216    32.35934   -4.08407   -1.57601
      H    H1217    31.12319   -3.81246   -0.74532
      O    O1218    28.09329   -2.72711   -3.50911
      H    H1219    28.78040   -2.18019   -3.12835
      H    H1220    27.30653   -2.18304   -3.47415
      O    O1221    20.23253   -7.10983   -8.01740
      H    H1222    21.10201   -6.82735   -7.73381
      H    H1223    19.74156   -6.29624   -8.13252
      O    O1224    27.39601   -5.72251   -3.89657
      H    H1225    27.85229   -4.91199   -3.67055
      H    H1226    27.04483   -6.04020   -3.06472
      O    O1227    29.69927   -0.21188    3.33266
      H    H1228    30.34349   -0.00594    4.01000
      H    H1229    30.06221   -0.97304    2.87974
      O    O1230    30.97248   -2.20864    2.05040
      H    H1231    31.61470   -2.90933    2.16362
      H    H1232    31.49741   -1.42880    1.87009
      O    O1233    34.81805   -1.92378   -8.22568
      H    H1234    34.59181   -2.64074   -7.63322
      H    H1235    34.42767   -2.17254   -9.06351
      O    O1236    32.74624   -1.40915    5.25401
      H    H1237    33.08186   -0.82248    5.93180
      H    H1238    31.82627   -1.53988    5.48379
      O    O1239    20.59965    2.10291   -7.45124
      H    H1240    20.95942    2.70184   -8.10551
      H    H1241    20.45889    2.64890   -6.67773
      O    O1242    34.39968   -4.00659   -6.56427
      H    H1243    34.11185   -3.54532   -5.77648
      H    H1244    35.19489   -4.46681   -6.29584
      O    O1245    20.58384    0.36839    7.02300
      H    H1246    20.69295   -0.57213    6.88254
      H    H1247    19.93190    0.63387    6.37438
      O    O1248    28.57510   -1.36002    8.42282
      H    H1249    28.25479   -2.07909    8.96739
      H    H1250    27.90093   -0.68451    8.49642
      O    O1251    26.61652   -0.51397   -6.63387
      H    H1252    26.60753    0.21900   -7.24942
      H    H1253    25.69635   -0.76082   -6.54117
      O    O1254    22.21718   -5.29248   -5.88919
      H    H1255    21.60997   -4.55259   -5.87966
      H    H1256    22.69211   -5.20255   -6.71537
      O    O1257    29.60248   -0.45115   -7.97135
      H    H1258    29.70367   -0.65475   -8.90115
      H    H1259    28.70265   -0.70532   -7.76657
      O    O1260    28.75066   -8.47344    4.01029
      H    H1261    29.24918   -7.99886    4.67548
      H    H1262    28.89295   -9.39709    4.21730
      O    O1263    28.24429    2.06748   -3.27658
      H    H1264    28.49844    2.02962   -4.19865
      H    H1265    27.29553    1.94082   -3.28376
      O    O1266    34.24954   -7.01333   -1.70073
      H    H1267    33.30856   -6.99831   -1.52596
      H    H1268    34.56395   -7.79973   -1.25470
      O    O1269    24.22771   -5.33137   -8.14034
      H    H1270    24.99404   -5.44323   -7.57779
      H    H1271    24.30518   -6.02757   -8.79266
      O    O1272    22.92238   -7.89886   -7.45705
      H    H1273    23.00274   -8.84611   -7.34531
      H    H1274    23.81436   -7.56817   -7.35098
      O    O1275    36.25210    0.15756   -0.02531
      H    H1276    36.37684    0.98067    0.44708
      H    H1277    37.11866   -0.05337   -0.37289
      O    O1278    23.72386    2.25068   -0.35359
      H    H1279    24.46010    1.70222   -0.08274
      H    H1280    24.10795    3.11628   -0.49299
      O    O1281    20.60840   -1.68197   -4.47944
      H    H1282    19.68238   -1.43985   -4.48890
      H    H1283    21.07405   -0.85454   -4.60097
      O    O1284    22.72968    1.43528    8.83497
      H    H1285    23.53096    1.75649    9.24851
      H    H1286    22.21487    1.07484    9.55696
      O    O1287    26.83409    1.42371   -8.53104
      H    H1288    27.62695    1.71259   -8.98286
      H    H1289    26.31452    0.99292   -9.20979
      O    O1290    31.56615   -2.45673    8.78251
      H    H1291    30.95996   -2.43357    8.04208
      H    H1292    31.26156   -3.18843    9.31923
      O    O1293    32.99618    1.27130    7.39345
      H    H1294    33.94836    1.18710    7.34347
      H    H1295    32.84901    1.93547    8.06683
      O    O1296    35.88710    0.65072   -7.10736
      H    H1297    35.60125    0.23723   -7.92194
      H    H1298    35.68906    1.57949   -7.22731
      O    O1299    20.44946   -6.07737    7.77857
      H    H1300    20.95337   -6.65664    8.35019
      H    H1301    19.71021   -5.79335    8.31621
      O    O1302    27.35183   -3.35595   -8.66680
      H    H1303    27.24689   -3.97072   -7.94066
      H    H1304    27.18425   -3.87936   -9.45050
      O    O1305    27.50326   -4.67027    7.31212
      H    H1306    26.73783   -4.10177    7.22759
      H    H1307    27.68485   -4.96265    6.41895
      O    O1308    30.59210   -4.29395   -8.06260
      H    H1309    30.04311   -3.84702   -7.41833
      H    H1310    31.21403   -4.79902   -7.53883
      O    O1311    34.64559   -2.93974    7.86962
      H    H1312    35.38654   -2.60216    7.36637
      H    H1313    33.88286   -2.77053    7.31660
      O    O1314    22.48177   -7.93441    8.67358
      H    H1315    22.52231   -8.23302    9.58210
      H    H1316    23.33632   -7.53365    8.51433
      O    O1317    26.25961   -5.33486   -6.16607
      H    H1318    26.68125   -5.50087   -5.32293
      H    H1319    26.38470   -6.14483   -6.66056
      O    O1320    24.42235   -9.35520    6.64103
      H    H1321    23.89200   -9.84611    6.01336
      H    H1322    25.09116   -8.92678    6.10682
      O    O1323    28.77238   -6.31110   -8.91836
      H    H1324    29.29294   -7.02619   -9.28425
      H    H1325    29.41922   -5.67251   -8.61831
      O    O1326    33.32016   -4.88826    6.40515
      H    H1327    33.73426   -4.73375    7.25419
      H    H1328    32.38526   -4.76273    6.56772
      O    O1329    33.79238   -7.54864    8.40906
      H    H1330    34.37445   -8.30341    8.32111
      H    H1331    33.96855   -7.01790    7.63221
      O    O1332    28.08168   -4.93621    4.37474
      H    H1333    28.50049   -4.09293    4.20236
      H    H1334    27.16255   -4.79900    4.14542
      O    O1335    30.41807   -7.20459    5.75852
      H    H1336    30.53769   -7.80048    6.49801
      H    H1337    31.27747   -7.16762    5.33865
      O    O1338    32.75686   -6.65087    4.33477
      H    H1339    32.23038   -6.12661    3.73129
      H    H1340    33.10000   -6.01813    4.96575
      O    O1341    25.93242    1.36909    5.49051
      H    H1342    25.39453    2.09370    5.17138
      H    H1343    26.18582    0.89213    4.70025
      O    O1344    28.78865    2.60421    5.74918
      H    H1345    28.71452    3.50773    6.05641
      H    H1346    27.88653    2.28540    5.72138
      O    O1347    29.33718    1.77007   -6.62819
      H    H1348    30.23226    2.10856   -6.60631
      H    H1349    29.36894    1.04801   -7.25576
      O    O1350    22.97679   -2.85723   -8.39949
      H    H1351    23.41428   -2.31426   -7.74373
      H    H1352    23.46157   -3.68253   -8.38985
      O    O1353    20.19137   -0.06833   -0.94746
      H    H1354    20.52168   -0.93622   -1.17960
      H    H1355    20.62047    0.13753   -0.11697
      O    O1356    24.78757   -1.73743   -3.28726
      H    H1357    24.48712   -1.86093   -2.38687
      H    H1358    24.68132   -2.59657   -3.69569
      O    O1359    20.68040    0.79873    1.79070
      H    H1360    20.24349    0.97881    2.62312
      H    H1361    21.24816    1.55619    1.64887
      O    O1362    36.31661    0.30043    6.07843
      H    H1363    35.71681    0.35969    5.33482
      H    H1364    36.44600   -0.63907    6.20812
      O    O1365    37.55676   -1.95779   -8.58460
      H    H1366    36.72605   -1.89012   -8.11387
      H    H1367    37.73394   -1.06737   -8.88791
      O    O1368    37.01240   -5.21304   -6.08118
      H    H1369    37.77430   -4.64337   -5.97521
      H    H1370    37.02784   -5.78032   -5.31035
      O    O1371    20.51284   -6.68924   -1.85041
      H    H1372    19.85772   -6.95808   -2.49444
      H    H1373    21.35063   -6.79880   -2.30021
      O    O1374    38.01840   -4.35803   -1.23698
      H    H1375    38.38928   -5.14130   -1.64339
      H    H1376    38.65859   -3.66912   -1.41525
      O    O1377    35.00178   -2.97437    4.17605
      H    H1378    34.18776   -2.54465    4.43863
      H    H1379    35.40920   -2.36253    3.56295
      O    O1380    37.06432   -4.91960   -8.92392
      H    H1381    37.33921   -4.01171   -9.05200
      H    H1382    36.87540   -4.98335   -7.98773
      O    O1383    36.96086   -6.98270   -3.93098
      H    H1384    36.58522   -7.74991   -4.36285
      H    H1385    36.23117   -6.60043   -3.44349
      O    O1386    21.55043   -6.30399    2.68992
      H    H1387    21.91774   -6.39125    3.56953
      H    H1388    20.98151   -7.06733    2.59061
      O    O1389    36.35082   -7.83555    5.70297
      H    H1390    36.11943   -8.06427    4.80277
      H    H1391    36.61127   -6.91559    5.65746
      O    O1392    21.10203   -9.39308    6.59577
      H    H1393    20.20764   -9.42640    6.93514
      H    H1394    21.64179   -9.19440    7.36089
      O    O1395    19.72665   -9.47935   -5.90788
      H    H1396    18.82305   -9.21633   -6.08271
      H    H1397    20.21071   -9.20823   -6.68788
      O    O1398    36.23595   -8.75695   -0.63026
      H    H1399    36.75970   -9.25069   -1.26124
      H    H1400    36.82189   -8.62192    0.11450
      O    O1401    36.41492   -8.67297    2.89170
      H    H1402    35.46519   -8.70661    3.00620
      H    H1403    36.59622   -7.76295    2.65667
      O    O1404    35.05938    1.77749   -2.29712
      H    H1405    35.65529    1.45595   -2.97368
      H    H1406    35.31720    1.30467   -1.50580
      O    O1407    22.96564   -1.79072    7.85194
      H    H1408    22.92260   -2.16143    8.73338
      H    H1409    23.09674   -0.85296    7.99212
      O    O1410    26.66624   -0.23476    3.45291
      H    H1411    26.42538    0.03270    2.56596
      H    H1412    27.60651   -0.06419    3.50800
      O    O1413    37.92666    1.78468    4.25397
      H    H1414    37.43249    2.18157    3.53669
      H    H1415    37.31799    1.15960    4.64770
      O    O1416    22.80444    1.15551    4.97172
      H    H1417    22.21047    1.02398    5.71072
      H    H1418    22.79683    0.31932    4.50593
      O    O1419    35.61060    2.42702    1.53265
      H    H1420    35.15090    3.17860    1.15845
      H    H1421    34.98185    1.70767    1.47413
      O    O1422    22.43567   -1.47866    3.92252
      H    H1423    21.70907   -2.09813    3.85512
      H    H1424    22.49658   -1.08459    3.05233
      O    O1425    26.04018    0.73584    0.70746
      H    H1426    26.55668    0.12458    0.18229
      H    H1427    26.68991    1.23872    1.19856
      O    O1428    28.77973    1.62669    1.53436
      H    H1429    29.06751    1.37212    0.65766
      H    H1430    29.29205    1.07443    2.12492
      O    O1431    20.71867    1.83878   -2.86780
      H    H1432    20.55087    1.20585   -2.16961
      H    H1433    19.85212    2.04472   -3.21838
      O    O1434    22.32494    0.53211   -5.42279
      H    H1435    21.79970    0.91291   -6.12659
      H    H1436    22.24939    1.15718   -4.70182
      O    O1437    28.84696    2.54830    8.90118
      H    H1438    29.77369    2.31273    8.94478
      H    H1439    28.83200    3.37550    8.41978
      O    O1440    37.08147    2.09086   -4.10140
      H    H1441    37.25669    1.40463   -4.74530
      H    H1442    36.38362    2.61557   -4.49373
      O    O1443    24.92423    2.48034   -6.54786
      H    H1444    25.65611    2.19627   -7.09548
      H    H1445    25.18360    2.24167   -5.65793
      O    O1446    24.08571   -1.40318   -6.54323
      H    H1447    23.45660   -0.93467   -5.99465
      H    H1448    24.20049   -2.24826   -6.10861
      O    O1449    35.41472    1.77529    8.72528
      H    H1450    36.20725    1.28021    8.51788
      H    H1451    35.70803    2.45430    9.33284
      O    O1452    -6.00802   11.42173   -1.61876
      H    H1453    -6.08861   10.50719   -1.88959
      H    H1454    -6.42157   11.91844   -2.32479
      O    O1455    -7.87621   13.19964    0.26216
      H    H1456    -8.65200   12.71968    0.55202
      H    H1457    -7.22492   12.52020    0.08778
      O    O1458    -3.85547   17.60565   -0.95792
      H    H1459    -4.31732   16.83438   -0.62921
      H    H1460    -3.04291   17.63226   -0.45268
      O    O1461    -7.62914   19.89146   -1.33752
      H    H1462    -8.24799   20.34721   -1.90808
      H    H1463    -6.77396   20.04660   -1.73855
      O    O1464    -8.43531   15.87535    0.26918
      H    H1465    -8.50449   14.93435    0.10809
      H    H1466    -7.67333   15.96550    0.84144
      O    O1467    -7.40480    8.68239    0.49607
      H    H1468    -7.02831    7.80958    0.38344
      H    H1469    -7.50285    9.01826   -0.39488
      O    O1470    -3.62238    6.17744   -2.57109
      H    H1471    -2.80142    5.68709   -2.52854
      H    H1472    -3.58898    6.76720   -1.81791
      O    O1473     0.66757    8.19411    3.99327
      H    H1474    -0.03721    8.58228    3.47478
      H    H1475     0.93336    8.88914    4.59536
      O    O1476    -6.76280   14.77538   -3.94433
      H    H1477    -7.38108   15.24032   -4.50806
      H    H1478    -6.25048   15.46813   -3.52738
      O    O1479    -3.38624    8.11747    0.20166
      H    H1480    -4.09068    8.40596    0.78197
      H    H1481    -3.02502    8.92749   -0.15838
      O    O1482    -1.76996   17.73499    2.46441
      H    H1483    -2.45361   18.40490    2.45608
      H    H1484    -1.23053   17.93305    1.69890
      O    O1485    -0.31754    7.56295    0.59258
      H    H1486    -1.26505    7.59685    0.72413
      H    H1487     0.00745    8.37685    0.97752
      O    O1488    -4.23408   19.57940    1.17893
      H    H1489    -4.22137   19.17563    0.31115
      H    H1490    -4.78656   20.35413    1.07507
      O    O1491    -2.93954   16.30102   -3.73206
      H    H1492    -3.04991   15.35846   -3.60711
      H    H1493    -2.94272   16.66259   -2.84578
      O    O1494    -4.83554   14.48238    2.50719
      H    H1495    -4.41866   14.26840    1.67253
      H    H1496    -4.11156   14.73966    3.07805
      O    O1497    -7.39751   11.92755   -4.37581
      H    H1498    -8.32459   11.86129   -4.14696
      H    H1499    -7.24503   12.86557   -4.49028
      O    O1500    -7.41061    8.19925   -7.37909
      H    H1501    -8.35024    8.36065   -7.29384
      H    H1502    -7.09228    8.91782   -7.92549
      O    O1503    -0.88933   12.88111    2.59881
      H    H1504    -1.71747   12.95042    2.12383
      H    H1505    -0.29428   13.46654    2.13040
      O    O1506    -3.36779   13.48958   -3.87228
      H    H1507    -3.98654   13.15154   -4.51965
      H    H1508    -3.38534   12.84556   -3.16436
      O    O1509    -3.92513    9.66804    3.54430
      H    H1510    -4.33801   10.49341    3.79830
      H    H1511    -4.65753    9.08254    3.35194
      O    O1512    -3.23512   19.71397    4.23240
      H    H1513    -3.71206   20.52119    4.03966
      H    H1514    -3.91894   19.06180    4.38502
      O    O1515    -5.19132   12.72827   -6.86501
      H    H1516    -4.75199   11.89051   -7.01122
      H    H1517    -4.47847   13.36121   -6.77859
      O    O1518    -7.08178   17.66787   -2.89688
      H    H1519    -6.64219   18.41031   -3.31134
      H    H1520    -7.14309   17.91053   -1.97299
      O    O1521    -1.60960    3.98255   -8.55090
      H    H1522    -1.92234    4.07523   -7.65100
      H    H1523    -0.84835    4.56065   -8.60116
      O    O1524     0.34480   19.47517    9.30154
      H    H1525     0.82077   19.95345    9.98044
      H    H1526     0.96552   19.40691    8.57609
      O    O1527    -0.25187   16.66645    6.46154
      H    H1528    -0.12557   16.42764    5.54326
      H    H1529    -0.20974   15.83490    6.93375
      O    O1530    -6.39020   20.36925    5.03102
      H    H1531    -5.87573   20.28005    5.83326
      H    H1532    -7.23329   20.71522    5.32381
      O    O1533    -4.41476   20.65478   -5.54058
      H    H1534    -4.57465   20.36508   -4.64240
      H    H1535    -4.58009   19.87880   -6.07606
      O    O1536    -4.71215   18.16354   -6.98078
      H    H1537    -5.40563   18.16127   -7.64055
      H    H1538    -3.96986   17.73947   -7.41136
      O    O1539    -5.14715   19.78981   -2.90593
      H    H1540    -4.69146   19.00875   -2.59207
      H    H1541    -4.80790   20.50049   -2.36181
      O    O1542    -0.39947    8.71970    7.42651
      H    H1543    -1.01505    9.22766    6.89806
      H    H1544    -0.71983    7.81953    7.36911
      O    O1545    -8.33804    7.55889    4.89273
      H    H1546    -8.80010    7.76719    5.70472
      H    H1547    -8.74023    6.74482    4.58980
      O    O1548    -3.33759    8.77978    6.02240
      H    H1549    -4.18823    8.48036    6.34330
      H    H1550    -3.49741    9.02398    5.11078
      O    O1551    -6.24262   10.27996    8.12228
      H    H1552    -5.91728    9.44633    7.78250
      H    H1553    -5.45459   10.80281    8.27011
      O    O1554    -5.60382    9.82173   -4.38361
      H    H1555    -6.20293   10.54531   -4.56725
      H    H1556    -5.05586    9.75941   -5.16597
      O    O1557    -6.99734    8.45808   -2.35328
      H    H1558    -6.60438    8.77530   -3.16641
      H    H1559    -6.63565    7.57927   -2.23883
      O    O1560    -8.68812    7.20881    8.90640
      H    H1561    -9.37829    7.01603    9.54101
      H    H1562    -7.94489    7.49228    9.43883
      O    O1563    -6.41182   11.04866    1.74179
      H    H1564    -7.14371   11.55734    2.09080
      H    H1565    -6.80939   10.23165    1.44067
      O    O1566    -5.94923    6.50202    1.15409
      H    H1567    -5.93196    6.95289    1.99827
      H    H1568    -6.19767    5.60259    1.36743
      O    O1569    -2.52216    3.91524    6.99273
      H    H1570    -2.19758    3.18421    7.51852
      H    H1571    -2.48651    3.59661    6.09083
      O    O1572    -2.59637   14.02775    0.60133
      H    H1573    -1.87646   14.52328    0.21094
      H    H1574    -2.79819   13.34954   -0.04328
      O    O1575    -7.13538    5.42155   -5.25573
      H    H1576    -7.94892    4.92287   -5.33120
      H    H1577    -7.32918    6.26137   -5.67210
      O    O1578    -7.21449   14.09866    6.48823
      H    H1579    -7.28076   13.17823    6.23399
      H    H1580    -7.84398   14.19620    7.20269
      O    O1581    -4.42054    9.79351   -6.95952
      H    H1582    -3.53258   10.10524   -7.13438
      H    H1583    -4.45003    8.92074   -7.35146
      O    O1584    -8.42448   15.96588   -6.28070
      H    H1585    -8.08291   16.71011   -6.77637
      H    H1586    -9.25321   16.27900   -5.91822
      O    O1587    -7.28282   16.92072    6.23861
      H    H1588    -7.26837   15.98881    6.02050
      H    H1589    -7.99031   17.00669    6.87759
      O    O1590    -2.14911   11.10470   -7.49153
      H    H1591    -2.23274   11.53612   -8.34189
      H    H1592    -1.42969   11.56453   -7.05885
      O    O1593    -1.07170   13.56145    5.58547
      H    H1594    -1.79688   14.15433    5.38841
      H    H1595    -0.54415   13.55380    4.78680
      O    O1596    -1.12039   17.95892   -4.76332
      H    H1597    -1.76277   17.30449   -4.48894
      H    H1598    -1.50732   18.36443   -5.53925
      O    O1599    -5.54174   15.28747   -0.91615
      H    H1600    -5.18936   14.69028   -1.57601
      H    H1601    -6.42551   14.96189   -0.74532
      O    O1602    -7.84943   18.56247    3.33266
      H    H1603    -7.20521   18.76841    4.01000
      H    H1604    -7.48649   17.80131    2.87974
      O    O1605    -6.57622   16.56571    2.05040
      H    H1606    -5.93400   15.86502    2.16362
      H    H1607    -6.05129   17.34555    1.87009
      O    O1608    -2.73065   16.85057   -8.22568
      H    H1609    -2.95689   16.13361   -7.63322
      H    H1610    -3.12103   16.60181   -9.06351
      O    O1611    -4.80246   17.36520    5.25401
      H    H1612    -4.46684   17.95187    5.93180
      H    H1613    -5.72243   17.23447    5.48379
      O    O1614    -3.14902   14.76776   -6.56427
      H    H1615    -3.43685   15.22903   -5.77648
      H    H1616    -2.35381   14.30754   -6.29584
      O    O1617    -5.75824    7.64695    3.78650
      H    H1618    -5.39016    6.82647    4.11445
      H    H1619    -6.61842    7.70714    4.20206
      O    O1620    -2.39204    6.60264   -5.40475
      H    H1621    -3.02072    6.70721   -6.11892
      H    H1622    -2.88685    6.82232   -4.61536
      O    O1623    -7.94622   18.32320   -7.97135
      H    H1624    -7.84503   18.11960   -8.90115
      H    H1625    -8.84605   18.06903   -7.76657
      O    O1626    -8.79804   10.30091    4.01029
      H    H1627    -8.29952   10.77549    4.67548
      H    H1628    -8.65575    9.37726    4.21730
      O    O1629    -6.39209    5.60630   -2.54938
      H    H1630    -6.51531    5.62492   -3.49843
      H    H1631    -5.44364    5.65420   -2.42954
      O    O1632    -1.59136    6.51770    4.85313
      H    H1633    -2.09400    7.25824    5.19251
      H    H1634    -0.77569    6.90610    4.53681
      O    O1635    -3.29916   11.76102   -1.70073
      H    H1636    -4.24014   11.77604   -1.52596
      H    H1637    -2.98475   10.97462   -1.25470
      O    O1638    -1.29660   18.93191   -0.02531
      H    H1639    -1.17186   19.75502    0.44708
      H    H1640    -0.43004   18.72098   -0.37289
      O    O1641    -5.98255   16.31762    8.78251
      H    H1642    -6.58874   16.34078    8.04208
      H    H1643    -6.28714   15.58592    9.31923
      O    O1644    -4.55252   20.04565    7.39345
      H    H1645    -3.60034   19.96145    7.34347
      H    H1646    -4.69969   20.70982    8.06683
      O    O1647    -1.66160   19.42507   -7.10736
      H    H1648    -1.94745   19.01158   -7.92194
      H    H1649    -1.85964   20.35384   -7.22731
      O    O1650    -6.95660   14.48040   -8.06260
      H    H1651    -7.50559   14.92733   -7.41833
      H    H1652    -6.33467   13.97533   -7.53883
      O    O1653    -2.90311   15.83461    7.86962
      H    H1654    -2.16216   16.17219    7.36637
      H    H1655    -3.66584   16.00382    7.31660
      O    O1656    -8.77632   12.46325   -8.91836
      H    H1657    -8.25576   11.74816   -9.28425
      H    H1658    -8.12948   13.10184   -8.61831
      O    O1659    -4.22854   13.88609    6.40515
      H    H1660    -3.81444   14.04060    7.25419
      H    H1661    -5.16344   14.01162    6.56772
      O    O1662    -3.75632   11.22571    8.40906
      H    H1663    -3.17425   10.47094    8.32111
      H    H1664    -3.58015   11.75645    7.63221
      O    O1665    -7.13063   11.56976    5.75852
      H    H1666    -7.01101   10.97387    6.49801
      H    H1667    -6.27123   11.60673    5.33865
      O    O1668    -4.79184   12.12348    4.33477
      H    H1669    -5.31832   12.64774    3.73129
      H    H1670    -4.44870   12.75622    4.96575
      O    O1671    -5.54441    7.72848    7.24941
      H    H1672    -6.23286    7.06663    7.18441
      H    H1673    -4.82381    7.28230    7.69425
      O    O1674    -4.91437    4.32364   -6.69157
      H    H1675    -4.63414    3.48043   -6.33563
      H    H1676    -5.68779    4.55595   -6.17769
      O    O1677    -8.76005   21.37856    5.74918
      H    H1678    -8.83418   22.28208    6.05641
      H    H1679    -9.66217   21.05975    5.72138
      O    O1680    -8.21152   20.54442   -6.62819
      H    H1681    -7.31644   20.88291   -6.60631
      H    H1682    -8.17976   19.82236   -7.25576
      O    O1683    -1.23209   19.07478    6.07843
      H    H1684    -1.83189   19.13404    5.33482
      H    H1685    -1.10270   18.13528    6.20812
      O    O1686     0.00806   16.81656   -8.58460
      H    H1687    -0.82265   16.88423   -8.11387
      H    H1688     0.18524   17.70698   -8.88791
      O    O1689    -0.53630   13.56131   -6.08118
      H    H1690     0.22560   14.13098   -5.97521
      H    H1691    -0.52086   12.99403   -5.31035
      O    O1692     0.46970   14.41632   -1.23698
      H    H1693     0.84058   13.63305   -1.64339
      H    H1694     1.10989   15.10523   -1.41525
      O    O1695    -2.54692   15.79998    4.17605
      H    H1696    -3.36094   16.22970    4.43863
      H    H1697    -2.13950   16.41182    3.56295
      O    O1698    -0.48438   13.85475   -8.92392
      H    H1699    -0.20949   14.76264   -9.05200
      H    H1700    -0.67330   13.79100   -7.98773
      O    O1701    -4.08682    6.87923   -7.62856
      H    H1702    -3.66833    6.69233   -8.46890
      H    H1703    -4.39321    6.02714   -7.31827
      O    O1704    -0.58784   11.79165   -3.93098
      H    H1705    -0.96348   11.02444   -4.36285
      H    H1706    -1.31753   12.17392   -3.44349
      O    O1707    -1.19788   10.93880    5.70297
      H    H1708    -1.42927   10.71008    4.80277
      H    H1709    -0.93743   11.85876    5.65746
      O    O1710    -2.75908    6.16444    8.48094
      H    H1711    -1.88206    6.17278    8.86434
      H    H1712    -2.74699    5.42753    7.87018
      O    O1713    -1.31275   10.01740   -0.63026
      H    H1714    -0.78900    9.52366   -1.26124
      H    H1715    -0.72681   10.15243    0.11450
      O    O1716    -1.13378   10.10138    2.89170
      H    H1717    -2.08351   10.06774    3.00620
      H    H1718    -0.95248   11.01140    2.65667
      O    O1719    -1.82275    9.27473   -4.69102
      H    H1720    -1.32684    9.04182   -3.90613
      H    H1721    -2.02114    8.43592   -5.10725
      O    O1722    -0.39404    7.91083   -2.15725
      H    H1723    -0.50411    7.75643   -1.21902
      H    H1724     0.36672    7.38292   -2.39971
      O    O1725    -2.04746    3.85024    4.30105
      H    H1726    -1.41024    4.46365    4.66697
      H    H1727    -1.89997    3.88631    3.35597
      O    O1728     0.49499    5.74162   -8.91663
      H    H1729     1.41992    5.60974   -9.12481
      H    H1730     0.47257    5.82090   -7.96299
      O    O1731     0.56884    6.51269   -6.29096
      H    H1732    -0.22601    6.44720   -5.76167
      H    H1733     0.77317    7.44775   -6.30243
      O    O1734    -2.48932   20.55184   -2.29712
      H    H1735    -1.89341   20.23030   -2.97368
      H    H1736    -2.23150   20.07902   -1.50580
      O    O1737    -8.67702    5.00286    7.20856
      H    H1738    -8.73813    5.59504    7.95810
      H    H1739    -7.73698    4.89546    7.06359
      O    O1740    -6.03956    4.65987    6.84779
      H    H1741    -5.42552    4.97779    6.18590
      H    H1742    -5.49460    4.17472    7.46738
      O    O1743     0.37796   20.55903    4.25397
      H    H1744    -0.11621   20.95592    3.53669
      H    H1745    -0.23071   19.93395    4.64770
      O    O1746    -5.29876    3.22308    3.17472
      H    H1747    -6.17277    3.55659    2.97201
      H    H1748    -5.40768    2.75040    3.99991
      O    O1749    -4.39156    5.43017    4.55889
      H    H1750    -4.72022    4.61534    4.17906
      H    H1751    -3.44333    5.38715    4.43546
      O    O1752    -1.93810   21.20137    1.53265
      H    H1753    -2.39780   21.95295    1.15845
      H    H1754    -2.56685   20.48202    1.47413
      O    O1755    -8.76897   20.40104    1.53436
      H    H1756    -8.48119   20.14647    0.65766
      H    H1757    -8.25665   19.84878    2.12492
      O    O1758    -7.55127    4.14006    2.11401
      H    H1759    -8.33409    4.61461    2.39369
      H    H1760    -7.84498    3.23555    2.00533
      O    O1761    -2.99917    4.84237    0.15892
      H    H1762    -2.55836    4.78688   -0.68892
      H    H1763    -3.26841    5.75817    0.22994
      O    O1764    -1.13531    4.47390   -1.83020
      H    H1765    -1.19647    3.53002   -1.97710
      H    H1766    -0.35611    4.58191   -1.28485
      O    O1767    -5.16335    3.22298   -1.13608
      H    H1768    -4.56042    3.79500   -0.66123
      H    H1769    -5.90405    3.78693   -1.35869
      O    O1770    -2.01989    3.62514   -5.86205
      H    H1771    -1.82483    4.52348   -5.59531
      H    H1772    -2.80691    3.39385   -5.36876
      O    O1773    -8.70174   21.32265    8.90118
      H    H1774    -7.77501   21.08708    8.94478
      H    H1775    -8.71670   22.14985    8.41978
      O    O1776    -0.46723   20.86521   -4.10140
      H    H1777    -0.29201   20.17898   -4.74530
      H    H1778    -1.16508   21.38992   -4.49373
      O    O1779    -4.91383    3.40249    9.24341
      H    H1780    -5.02729    3.72195   10.13857
      H    H1781    -4.09686    3.80374    8.94714
      O    O1782    -2.13398   20.54964    8.72528
      H    H1783    -1.34145   20.05456    8.51788
      H    H1784    -1.84067   21.22865    9.33284
      O    O1785    12.76633   11.42173   -1.61876
      H    H1786    12.68574   10.50719   -1.88959
      H    H1787    12.35278   11.91844   -2.32479
      O    O1788    10.89814   13.19964    0.26216
      H    H1789    10.12235   12.71968    0.55202
      H    H1790    11.54943   12.52020    0.08778
      O    O1791     4.91472   13.51162    1.13974
      H    H1792     4.08321   13.25649    1.53939
      H    H1793     5.52282   13.58269    1.87553
      O    O1794    14.91888   17.60565   -0.95792
      H    H1795    14.45703   16.83438   -0.62921
      H    H1796    15.73144   17.63226   -0.45268
      O    O1797     4.89485   17.54563    1.33554
      H    H1798     5.19765   16.65540    1.15656
      H    H1799     5.63921   18.10265    1.10777
      O    O1800     3.32392    8.47181   -5.07602
      H    H1801     2.43559    8.81340   -5.17803
      H    H1802     3.60803    8.27184   -5.96794
      O    O1803     1.28722   11.07237    0.80795
      H    H1804     1.85883   10.30459    0.80831
      H    H1805     1.28737   11.37125   -0.10139
      O    O1806    11.14521   19.89146   -1.33752
      H    H1807    10.52636   20.34721   -1.90808
      H    H1808    12.00039   20.04660   -1.73855
      O    O1809    10.33904   15.87535    0.26918
      H    H1810    10.26986   14.93435    0.10809
      H    H1811    11.10102   15.96550    0.84144
      O    O1812     2.52970    6.48081    2.59484
      H    H1813     2.34999    5.58338    2.87512
      H    H1814     2.12771    7.02799    3.26954
      O    O1815    11.36955    8.68239    0.49607
      H    H1816    11.74604    7.80958    0.38344
      H    H1817    11.27150    9.01826   -0.39488
      O    O1818     5.50005    7.05496   -4.04218
      H    H1819     5.60673    7.95533   -3.73531
      H    H1820     4.58929    7.00675   -4.33272
      O    O1821    15.15197    6.17744   -2.57109
      H    H1822    15.97293    5.68709   -2.52854
      H    H1823    15.18537    6.76720   -1.81791
      O    O1824     3.14837    8.97686    1.20308
      H    H1825     3.82938    9.24069    1.82182
      H    H1826     2.83318    8.13694    1.53688
      O    O1827     7.34083   10.02359    0.29034
      H    H1828     7.84865   10.52169    0.93084
      H    H1829     7.87215    9.24711    0.11427
      O    O1830    19.44192    8.19411    3.99327
      H    H1831    18.73714    8.58228    3.47478
      H    H1832    19.70771    8.88914    4.59536
      O    O1833     5.62444    4.66345    4.55668
      H    H1834     5.62628    5.18069    3.75127
      H    H1835     4.79487    4.18647    4.53367
      O    O1836    12.01155   14.77538   -3.94433
      H    H1837    11.39327   15.24032   -4.50806
      H    H1838    12.52387   15.46813   -3.52738
      O    O1839     6.87472   14.30297    2.73403
      H    H1840     6.54166   14.92986    3.37613
      H    H1841     7.05139   14.82915    1.95419
      O    O1842    15.38811    8.11747    0.20166
      H    H1843    14.68367    8.40596    0.78197
      H    H1844    15.74933    8.92749   -0.15838
      O    O1845     5.30597    6.37444    2.56372
      H    H1846     5.64765    7.21865    2.26911
      H    H1847     4.36755    6.52282    2.68026
      O    O1848     6.08663   16.27105    4.54895
      H    H1849     6.70403   16.94615    4.26739
      H    H1850     5.22594   16.67984    4.45770
      O    O1851     1.37987   15.46103   -6.57037
      H    H1852     1.00266   15.94974   -7.30188
      H    H1853     1.63717   16.13356   -5.93972
      O    O1854    17.00439   17.73499    2.46441
      H    H1855    16.32074   18.40490    2.45608
      H    H1856    17.54382   17.93305    1.69890
      O    O1857    18.45681    7.56295    0.59258
      H    H1858    17.50930    7.59685    0.72413
      H    H1859    18.78180    8.37685    0.97752
      O    O1860     8.98876    3.86267   -1.11182
      H    H1861     9.29626    3.30736   -1.82827
      H    H1862     8.05883    3.99712   -1.29452
      O    O1863    14.54027   19.57940    1.17893
      H    H1864    14.55298   19.17563    0.31115
      H    H1865    13.98779   20.35413    1.07507
      O    O1866    15.83481   16.30102   -3.73206
      H    H1867    15.72444   15.35846   -3.60711
      H    H1868    15.83163   16.66259   -2.84578
      O    O1869    13.93881   14.48238    2.50719
      H    H1870    14.35569   14.26840    1.67253
      H    H1871    14.66279   14.73966    3.07805
      O    O1872    11.37684   11.92755   -4.37581
      H    H1873    10.44976   11.86129   -4.14696
      H    H1874    11.52932   12.86557   -4.49028
      O    O1875    11.36374    8.19925   -7.37909
      H    H1876    10.42411    8.36065   -7.29384
      H    H1877    11.68207    8.91782   -7.92549
      O    O1878    17.88502   12.88111    2.59881
      H    H1879    17.05688   12.95042    2.12383
      H    H1880    18.48007   13.46654    2.13040
      O    O1881    15.40656   13.48958   -3.87228
      H    H1882    14.78781   13.15154   -4.51965
      H    H1883    15.38901   12.84556   -3.16436
      O    O1884    14.84922    9.66804    3.54430
      H    H1885    14.43634   10.49341    3.79830
      H    H1886    14.11682    9.08254    3.35194
      O    O1887     6.98250   12.45403   -1.59383
      H    H1888     6.57820   11.74175   -2.08924
      H    H1889     7.06881   12.10935   -0.70503
      O    O1890     7.45067   16.14078    0.57009
      H    H1891     7.15350   15.53533   -0.10913
      H    H1892     8.40065   16.17852    0.45902
      O    O1893     5.69536    9.22835    2.18607
      H    H1894     6.24682    9.33788    1.41140
      H    H1895     6.20971    9.60211    2.90159
      O    O1896    15.53923   19.71397    4.23240
      H    H1897    15.06229   20.52119    4.03966
      H    H1898    14.85541   19.06180    4.38502
      O    O1899     6.54251   15.87895    7.22087
      H    H1900     5.64537   16.10295    7.46821
      H    H1901     6.56780   16.00245    6.27201
      O    O1902    13.58303   12.72827   -6.86501
      H    H1903    14.02236   11.89051   -7.01122
      H    H1904    14.29588   13.36121   -6.77859
      O    O1905     5.36963   12.75029    5.79660
      H    H1906     5.23041   13.62257    6.16534
      H    H1907     4.48777   12.40757    5.65140
      O    O1908    11.69257   17.66787   -2.89688
      H    H1909    12.13216   18.41031   -3.31134
      H    H1910    11.63126   17.91053   -1.97299
      O    O1911     7.16767   18.69246    8.00512
      H    H1912     7.13921   19.09675    7.13796
      H    H1913     7.00417   17.76349    7.84228
      O    O1914    17.16475    3.98255   -8.55090
      H    H1915    16.85201    4.07523   -7.65100
      H    H1916    17.92600    4.56065   -8.60116
      O    O1917     3.68296   11.34853   -4.09317
      H    H1918     3.56272   12.07474   -4.70504
      H    H1919     3.37305   10.57882   -4.57038
      O    O1920    19.11915   19.47517    9.30154
      H    H1921    19.59512   19.95345    9.98044
      H    H1922    19.73987   19.40691    8.57609
      O    O1923     1.32150   14.52004    1.71370
      H    H1924     1.39954   14.65492    0.76927
      H    H1925     1.93567   13.81163    1.90651
      O    O1926     2.56626   16.22006   -1.87569
      H    H1927     2.15907   16.36152   -2.73033
      H    H1928     3.45756   15.93608   -2.07857
      O    O1929    18.52248   16.66645    6.46154
      H    H1930    18.64878   16.42764    5.54326
      H    H1931    18.56461   15.83490    6.93375
      O    O1932    12.38415   20.36925    5.03102
      H    H1933    12.89862   20.28005    5.83326
      H    H1934    11.54106   20.71522    5.32381
      O    O1935    14.35959   20.65478   -5.54058
      H    H1936    14.19970   20.36508   -4.64240
      H    H1937    14.19426   19.87880   -6.07606
      O    O1938     6.83843   20.43464   -3.76342
      H    H1939     6.66268   19.51819   -3.97664
      H    H1940     5.98400   20.79337   -3.52364
      O    O1941    14.06220   18.16354   -6.98078
      H    H1942    13.36872   18.16127   -7.64055
      H    H1943    14.80449   17.73947   -7.41136
      O    O1944    13.62720   19.78981   -2.90593
      H    H1945    14.08289   19.00875   -2.59207
      H    H1946    13.96645   20.50049   -2.36181
      O    O1947     1.37745   15.56146    4.25314
      H    H1948     1.54056   15.09199    3.43508
      H    H1949     1.84270   15.05381    4.91803
      O    O1950     6.14933    4.69203   -0.71080
      H    H1951     5.70614    5.47299   -1.04235
      H    H1952     6.70783    5.01502   -0.00371
      O    O1953    10.43631    7.55889    4.89273
      H    H1954     9.97425    7.76719    5.70472
      H    H1955    10.03412    6.74482    4.58980
      O    O1956    12.53173   10.27996    8.12228
      H    H1957    12.85707    9.44633    7.78250
      H    H1958    13.31976   10.80281    8.27011
      O    O1959     9.26521    4.31310   -5.83022
      H    H1960     8.64063    4.30909   -5.10489
      H    H1961     9.17822    3.44620   -6.22662
      O    O1962     8.18692    5.23677    1.14816
      H    H1963     8.48415    6.14305    1.06736
      H    H1964     8.73547    4.74864    0.53412
      O    O1965     5.94075    9.81539   -2.98268
      H    H1966     5.71484    9.59911   -2.07801
      H    H1967     5.16000   10.24824   -3.32808
      O    O1968    13.17053    9.82173   -4.38361
      H    H1969    12.57142   10.54531   -4.56725
      H    H1970    13.71849    9.75941   -5.16597
      O    O1971     8.38067   10.71395    7.68335
      H    H1972     8.28503    9.77342    7.53339
      H    H1973     9.22387   10.93546    7.28816
      O    O1974    11.77701    8.45808   -2.35328
      H    H1975    12.16997    8.77530   -3.16641
      H    H1976    12.13870    7.57927   -2.23883
      O    O1977     3.51173    7.12532    5.83673
      H    H1978     3.11806    7.97284    6.04401
      H    H1979     2.82357    6.48795    6.02759
      O    O1980    10.08623    7.20881    8.90640
      H    H1981     9.39606    7.01603    9.54101
      H    H1982    10.82946    7.49228    9.43883
      O    O1983     0.81343    5.04816   -0.13026
      H    H1984     0.52474    5.61845    0.58223
      H    H1985     1.55801    4.56861    0.23286
      O    O1986    12.36253   11.04866    1.74179
      H    H1987    11.63064   11.55734    2.09080
      H    H1988    11.96496   10.23165    1.44067
      O    O1989     8.80027    7.72408    0.14704
      H    H1990     8.80387    7.28307   -0.70250
      H    H1991     9.69538    8.04581    0.25423
      O    O1992     4.65050    7.60673   -0.89354
      H    H1993     4.31051    8.08425   -0.13683
      H    H1994     3.88824    7.15324   -1.25343
      O    O1995     8.86228    8.72528   -6.86228
      H    H1996     8.98356    8.68393   -5.91370
      H    H1997     8.47713    9.58770   -7.01761
      O    O1998    12.82512    6.50202    1.15409
      H    H1999    12.84239    6.95289    1.99827
      H    H2000    12.57668    5.60259    1.36743
      O    O2001     7.87443   11.03540   -7.46395
      H    H2002     7.30612   10.58722   -8.09036
      H    H2003     8.58333   11.39468   -7.99744
      O    O2004     2.95135   14.93660    6.41272
      H    H2005     2.56683   14.29597    7.01102
      H    H2006     3.26257   15.64021    6.98220
      O    O2007     9.10106   11.78425    1.89358
      H    H2008     9.46808   11.31011    2.63972
      H    H2009     8.91157   12.65841    2.23442
      O    O2010     1.96511    6.52862   -1.97707
      H    H2011     1.67980    6.16419   -1.13921
      H    H2012     1.90300    5.79667   -2.59075
      O    O2013     6.89100   10.82512    4.21201
      H    H2014     6.58671   11.70432    4.43704
      H    H2015     7.84565   10.88510    4.24775
      O    O2016     5.41918   15.03122   -5.19131
      H    H2017     4.64541   14.49098   -5.35144
      H    H2018     6.14864   14.51188   -5.52953
      O    O2019    16.17798   14.02775    0.60133
      H    H2020    16.89789   14.52328    0.21094
      H    H2021    15.97616   13.34954   -0.04328
      O    O2022    11.63897    5.42155   -5.25573
      H    H2023    10.82543    4.92287   -5.33120
      H    H2024    11.44517    6.26137   -5.67210
      O    O2025    11.55986   14.09866    6.48823
      H    H2026    11.49359   13.17823    6.23399
      H    H2027    10.93037   14.19620    7.20269
      O    O2028    14.35381    9.79351   -6.95952
      H    H2029    15.24177   10.10524   -7.13438
      H    H2030    14.32432    8.92074   -7.35146
      O    O2031     5.46292   14.69926   -1.55343
      H    H2032     5.98079   13.89608   -1.60774
      H    H2033     5.01132   14.63717   -0.71175
      O    O2034    10.34987   15.96588   -6.28070
      H    H2035    10.69144   16.71011   -6.77637
      H    H2036     9.52114   16.27900   -5.91822
      O    O2037     2.94737   11.66539    5.35914
      H    H2038     2.58887   12.33078    5.94648
      H    H2039     2.65283   10.83375    5.73040
      O    O2040     6.14869   12.12382    8.24310
      H    H2041     5.84870   12.26953    7.34588
      H    H2042     6.91981   11.56435    8.15044
      O    O2043    11.49153   16.92072    6.23861
      H    H2044    11.50598   15.98881    6.02050
      H    H2045    10.78404   17.00669    6.87759
      O    O2046    16.62524   11.10470   -7.49153
      H    H2047    16.54161   11.53612   -8.34189
      H    H2048    17.34466   11.56453   -7.05885
      O    O2049    17.70265   13.56145    5.58547
      H    H2050    16.97747   14.15433    5.38841
      H    H2051    18.23020   13.55380    4.78680
      O    O2052    17.65396   17.95892   -4.76332
      H    H2053    17.01158   17.30449   -4.48894
      H    H2054    17.26703   18.36443   -5.53925
      O    O2055    13.23261   15.28747   -0.91615
      H    H2056    13.58499   14.69028   -1.57601
      H    H2057    12.34884   14.96189   -0.74532
      O    O2058     9.31894   16.04724   -3.50911
      H    H2059    10.00605   16.59416   -3.12835
      H    H2060     8.53218   16.59131   -3.47415
      O    O2061     1.45818   11.66452   -8.01740
      H    H2062     2.32766   11.94700   -7.73381
      H    H2063     0.96721   12.47811   -8.13252
      O    O2064     8.62166   13.05184   -3.89657
      H    H2065     9.07794   13.86236   -3.67055
      H    H2066     8.27048   12.73415   -3.06472
      O    O2067    10.92492   18.56247    3.33266
      H    H2068    11.56914   18.76841    4.01000
      H    H2069    11.28786   17.80131    2.87974
      O    O2070     4.52284    3.39560   -3.42432
      H    H2071     4.39430    3.38739   -2.47583
      H    H2072     3.69904    3.73391   -3.77522
      O    O2073    12.19813   16.56571    2.05040
      H    H2074    12.84035   15.86502    2.16362
      H    H2075    12.72306   17.34555    1.87009
      O    O2076    16.04370   16.85057   -8.22568
      H    H2077    15.81746   16.13361   -7.63322
      H    H2078    15.65332   16.60181   -9.06351
      O    O2079    13.97189   17.36520    5.25401
      H    H2080    14.30751   17.95187    5.93180
      H    H2081    13.05192   17.23447    5.48379
      O    O2082     1.82530   20.87726   -7.45124
      H    H2083     2.18507   21.47619   -8.10551
      H    H2084     1.68454   21.42325   -6.67773
      O    O2085     1.52223    5.15472    6.03635
      H    H2086     0.80808    5.35441    6.64161
      H    H2087     1.94173    4.37867    6.40783
      O    O2088    15.62533   14.76776   -6.56427
      H    H2089    15.33750   15.22903   -5.77648
      H    H2090    16.42054   14.30754   -6.29584
      O    O2091     1.80949   19.14274    7.02300
      H    H2092     1.91860   18.20222    6.88254
      H    H2093     1.15755   19.40822    6.37438
      O    O2094     9.80075   17.41433    8.42282
      H    H2095     9.48044   16.69526    8.96739
      H    H2096     9.12658   18.08984    8.49642
      O    O2097     7.84217   18.26038   -6.63387
      H    H2098     7.83318   18.99335   -7.24942
      H    H2099     6.92200   18.01353   -6.54117
      O    O2100     3.44283   13.48187   -5.88919
      H    H2101     2.83562   14.22176   -5.87966
      H    H2102     3.91776   13.57180   -6.71537
      O    O2103    13.01611    7.64695    3.78650
      H    H2104    13.38419    6.82647    4.11445
      H    H2105    12.15593    7.70714    4.20206
      O    O2106    16.38231    6.60264   -5.40475
      H    H2107    15.75363    6.70721   -6.11892
      H    H2108    15.88750    6.82232   -4.61536
      O    O2109    10.82813   18.32320   -7.97135
      H    H2110    10.92932   18.11960   -8.90115
      H    H2111     9.92830   18.06903   -7.76657
      O    O2112     8.35071    8.88124   -3.98896
      H    H2113     7.64233    9.34987   -3.54760
      H    H2114     8.63516    8.22344   -3.35444
      O    O2115     9.97631   10.30091    4.01029
      H    H2116    10.47483   10.77549    4.67548
      H    H2117    10.11860    9.37726    4.21730
      O    O2118    12.38226    5.60630   -2.54938
      H    H2119    12.25904    5.62492   -3.49843
      H    H2120    13.33071    5.65420   -2.42954
      O    O2121     9.46994   20.84183   -3.27658
      H    H2122     9.72409   20.80397   -4.19865
      H    H2123     8.52118   20.71517   -3.28376
      O    O2124     6.55422    7.18974   -6.61389
      H    H2125     7.40327    7.62676   -6.67987
      H    H2126     6.18734    7.50177   -5.78668
      O    O2127    15.47519   11.76102   -1.70073
      H    H2128    14.53421   11.77604   -1.52596
      H    H2129    15.78960   10.97462   -1.25470
      O    O2130     5.45336   13.44298   -8.14034
      H    H2131     6.21969   13.33112   -7.57779
      H    H2132     5.53083   12.74678   -8.79266
      O    O2133     4.14803   10.87549   -7.45705
      H    H2134     4.22839    9.92824   -7.34531
      H    H2135     5.04001   11.20618   -7.35098
      O    O2136    17.47775   18.93191   -0.02531
      H    H2137    17.60249   19.75502    0.44708
      H    H2138    18.34431   18.72098   -0.37289
      O    O2139     4.94951   21.02503   -0.35359
      H    H2140     5.68575   20.47657   -0.08274
      H    H2141     5.33360   21.89063   -0.49299
      O    O2142     1.83405   17.09238   -4.47944
      H    H2143     0.90803   17.33450   -4.48890
      H    H2144     2.29970   17.91981   -4.60097
      O    O2145     3.95533   20.20963    8.83497
      H    H2146     4.75661   20.53084    9.24851
      H    H2147     3.44052   19.84919    9.55696
      O    O2148     8.05974   20.19806   -8.53104
      H    H2149     8.85260   20.48694   -8.98286
      H    H2150     7.54017   19.76727   -9.20979
      O    O2151    12.79180   16.31762    8.78251
      H    H2152    12.18561   16.34078    8.04208
      H    H2153    12.48721   15.58592    9.31923
      O    O2154    14.22183   20.04565    7.39345
      H    H2155    15.17401   19.96145    7.34347
      H    H2156    14.07466   20.70982    8.06683
      O    O2157    17.11275   19.42507   -7.10736
      H    H2158    16.82690   19.01158   -7.92194
      H    H2159    16.91471   20.35384   -7.22731
      O    O2160     1.67511   12.69698    7.77857
      H    H2161     2.17902   12.11771    8.35019
      H    H2162     0.93586   12.98100    8.31621
      O    O2163     8.57748   15.41840   -8.66680
      H    H2164     8.47254   14.80363   -7.94066
      H    H2165     8.40990   14.89499   -9.45050
      O    O2166     8.72891   14.10408    7.31212
      H    H2167     7.96348   14.67258    7.22759
      H    H2168     8.91050   13.81170    6.41895
      O    O2169    11.81775   14.48040   -8.06260
      H    H2170    11.26876   14.92733   -7.41833
      H    H2171    12.43968   13.97533   -7.53883
      O    O2172    15.87124   15.83461    7.86962
      H    H2173    16.61219   16.17219    7.36637
      H    H2174    15.10851   16.00382    7.31660
      O    O2175     3.70742   10.83994    8.67358
      H    H2176     3.74796   10.54133    9.58210
      H    H2177     4.56197   11.24070    8.51433
      O    O2178     7.48526   13.43949   -6.16607
      H    H2179     7.90690   13.27348   -5.32293
      H    H2180     7.61035   12.62952   -6.66056
      O    O2181     5.64800    9.41915    6.64103
      H    H2182     5.11765    8.92824    6.01336
      H    H2183     6.31681    9.84757    6.10682
      O    O2184     9.99803   12.46325   -8.91836
      H    H2185    10.51859   11.74816   -9.28425
      H    H2186    10.64487   13.10184   -8.61831
      O    O2187    14.54581   13.88609    6.40515
      H    H2188    14.95991   14.04060    7.25419
      H    H2189    13.61091   14.01162    6.56772
      O    O2190    15.01803   11.22571    8.40906
      H    H2191    15.60010   10.47094    8.32111
      H    H2192    15.19420   11.75645    7.63221
      O    O2193     6.13523    6.38539    6.72076
      H    H2194     6.04092    5.76746    5.99584
      H    H2195     5.55497    7.11201    6.49375
      O    O2196     8.90138    4.94271    3.75349
      H    H2197     8.45311    4.96514    2.90805
      H    H2198     8.26790    4.54461    4.35052
      O    O2199     9.30733   13.83814    4.37474
      H    H2200     9.72614   14.68142    4.20236
      H    H2201     8.38820   13.97535    4.14542
      O    O2202    11.64372   11.56976    5.75852
      H    H2203    11.76334   10.97387    6.49801
      H    H2204    12.50312   11.60673    5.33865
      O    O2205    13.98251   12.12348    4.33477
      H    H2206    13.45603   12.64774    3.73129
      H    H2207    14.32565   12.75622    4.96575
      O    O2208     7.15807   20.14344    5.49051
      H    H2209     6.62018   20.86805    5.17138
      H    H2210     7.41147   19.66648    4.70025
      O    O2211     8.41060    8.11190    7.01610
      H    H2212     9.00057    7.80348    7.70389
      H    H2213     7.59262    7.63987    7.17209
      O    O2214    13.85998    4.32364   -6.69157
      H    H2215    14.14021    3.48043   -6.33563
      H    H2216    13.08656    4.55595   -6.17769
      O    O2217    10.01430   21.37856    5.74918
      H    H2218     9.94017   22.28208    6.05641
      H    H2219     9.11218   21.05975    5.72138
      O    O2220     8.39792    5.55634   -8.24685
      H    H2221     8.05012    4.87874   -8.82660
      H    H2222     8.59920    5.09529   -7.43251
      O    O2223    10.56283   20.54442   -6.62819
      H    H2224    11.45791   20.88291   -6.60631
      H    H2225    10.59459   19.82236   -7.25576
      O    O2226     4.20244   15.91712   -8.39949
      H    H2227     4.63993   16.46009   -7.74373
      H    H2228     4.68722   15.09182   -8.38985
      O    O2229     1.41702   18.70602   -0.94746
      H    H2230     1.74733   17.83813   -1.17960
      H    H2231     1.84612   18.91188   -0.11697
      O    O2232     6.01322   17.03692   -3.28726
      H    H2233     5.71277   16.91342   -2.38687
      H    H2234     5.90697   16.17778   -3.69569
      O    O2235     1.90605   19.57308    1.79070
      H    H2236     1.46914   19.75316    2.62312
      H    H2237     2.47381   20.33054    1.64887
      O    O2238    17.54226   19.07478    6.07843
      H    H2239    16.94246   19.13404    5.33482
      H    H2240    17.67165   18.13528    6.20812
      O    O2241    18.78241   16.81656   -8.58460
      H    H2242    17.95170   16.88423   -8.11387
      H    H2243    18.95959   17.70698   -8.88791
      O    O2244    18.23805   13.56131   -6.08118
      H    H2245    18.99995   14.13098   -5.97521
      H    H2246    18.25349   12.99403   -5.31035
      O    O2247     1.73849   12.08511   -1.85041
      H    H2248     1.08337   11.81627   -2.49444
      H    H2249     2.57628   11.97555   -2.30021
      O    O2250    19.24405   14.41632   -1.23698
      H    H2251    19.61493   13.63305   -1.64339
      H    H2252    19.88424   15.10523   -1.41525
      O    O2253    16.22743   15.79998    4.17605
      H    H2254    15.41341   16.22970    4.43863
      H    H2255    16.63485   16.41182    3.56295
      O    O2256    18.28997   13.85475   -8.92392
      H    H2257    18.56486   14.76264   -9.05200
      H    H2258    18.10105   13.79100   -7.98773
      O    O2259    14.68753    6.87923   -7.62856
      H    H2260    15.10602    6.69233   -8.46890
      H    H2261    14.38114    6.02714   -7.31827
      O    O2262    18.18651   11.79165   -3.93098
      H    H2263    17.81087   11.02444   -4.36285
      H    H2264    17.45682   12.17392   -3.44349
      O    O2265     2.77608   12.47036    2.68992
      H    H2266     3.14339   12.38310    3.56953
      H    H2267     2.20716   11.70702    2.59061
      O    O2268    17.57647   10.93880    5.70297
      H    H2269    17.34508   10.71008    4.80277
      H    H2270    17.83692   11.85876    5.65746
      O    O2271     2.32768    9.38127    6.59577
      H    H2272     1.43329    9.34795    6.93514
      H    H2273     2.86744    9.57995    7.36089
      O    O2274     0.95230    9.29500   -5.90788
      H    H2275     0.04870    9.55802   -6.08271
      H    H2276     1.43636    9.56612   -6.68788
      O    O2277    17.46160   10.01740   -0.63026
      H    H2278    17.98535    9.52366   -1.26124
      H    H2279    18.04754   10.15243    0.11450
      O    O2280    17.64057   10.10138    2.89170
      H    H2281    16.69084   10.06774    3.00620
      H    H2282    17.82187   11.01140    2.65667
      O    O2283     3.49502    8.35155   -7.99844
      H    H2284     4.20419    7.92987   -8.48371
      H    H2285     2.77901    8.41908   -8.63010
      O    O2286    16.95160    9.27473   -4.69102
      H    H2287    17.44751    9.04182   -3.90613
      H    H2288    16.75321    8.43592   -5.10725
      O    O2289     2.83165    3.65610    0.94409
      H    H2290     3.47927    3.10584    0.50360
      H    H2291     3.25184    3.91042    1.76567
      O    O2292    18.38031    7.91083   -2.15725
      H    H2293    18.27024    7.75643   -1.21902
      H    H2294    19.14107    7.38292   -2.39971
      O    O2295    16.72689    3.85024    4.30105
      H    H2296    17.36411    4.46365    4.66697
      H    H2297    16.87438    3.88631    3.35597
      O    O2298    19.26934    5.74162   -8.91663
      H    H2299    20.19427    5.60974   -9.12481
      H    H2300    19.24692    5.82090   -7.96299
      O    O2301    19.34319    6.51269   -6.29096
      H    H2302    18.54834    6.44720   -5.76167
      H    H2303    19.54752    7.44775   -6.30243
      O    O2304    16.28503   20.55184   -2.29712
      H    H2305    16.88094   20.23030   -2.97368
      H    H2306    16.54285   20.07902   -1.50580
      O    O2307     2.58485    3.81167    3.68662
      H    H2308     2.23633    4.26805    4.45244
      H    H2309     2.25362    2.91738    3.76886
      O    O2310     4.19129   16.98363    7.85194
      H    H2311     4.14825   16.61292    8.73338
      H    H2312     4.32239   17.92139    7.99212
      O    O2313     7.89189   18.53959    3.45291
      H    H2314     7.65103   18.80705    2.56596
      H    H2315     8.83216   18.71016    3.50800
      O    O2316    10.09733    5.00286    7.20856
      H    H2317    10.03622    5.59504    7.95810
      H    H2318    11.03737    4.89546    7.06359
      O    O2319    19.15231   20.55903    4.25397
      H    H2320    18.65814   20.95592    3.53669
      H    H2321    18.54364   19.93395    4.64770
      O    O2322     3.25692    3.33929    6.96170
      H    H2323     3.80522    3.15810    6.19831
      H    H2324     3.32245    2.54870    7.49733
      O    O2325     4.03009   19.92986    4.97172
      H    H2326     3.43612   19.79833    5.71072
      H    H2327     4.02248   19.09367    4.50593
      O    O2328    13.47559    3.22308    3.17472
      H    H2329    12.60158    3.55659    2.97201
      H    H2330    13.36667    2.75040    3.99991
      O    O2331    16.83625   21.20137    1.53265
      H    H2332    16.37655   21.95295    1.15845
      H    H2333    16.20750   20.48202    1.47413
      O    O2334     3.66132   17.29569    3.92252
      H    H2335     2.93472   16.67622    3.85512
      H    H2336     3.72223   17.68976    3.05233
      O    O2337     7.26583   19.51019    0.70746
      H    H2338     7.78233   18.89893    0.18229
      H    H2339     7.91556   20.01307    1.19856
      O    O2340    10.00538   20.40104    1.53436
      H    H2341    10.29316   20.14647    0.65766
      H    H2342    10.51770   19.84878    2.12492
      O    O2343    11.22308    4.14006    2.11401
      H    H2344    10.44026    4.61461    2.39369
      H    H2345    10.92937    3.23555    2.00533
      O    O2346    15.77518    4.84237    0.15892
      H    H2347    16.21599    4.78688   -0.68892
      H    H2348    15.50594    5.75817    0.22994
      O    O2349    17.63904    4.47390   -1.83020
      H    H2350    17.57788    3.53002   -1.97710
      H    H2351    18.41824    4.58191   -1.28485
      O    O2352     1.94432   20.61313   -2.86780
      H    H2353     1.77652   19.98020   -2.16961
      H    H2354     1.07777   20.81907   -3.21838
      O    O2355     2.56712    4.44481   -5.36462
      H    H2356     3.32505    4.55770   -5.93821
      H    H2357     2.10483    5.28173   -5.41027
      O    O2358     9.10850    6.55874   -2.37439
      H    H2359     8.29595    6.18443   -2.71480
      H    H2360     9.61266    5.80325   -2.07227
      O    O2361    13.61100    3.22298   -1.13608
      H    H2362    14.21393    3.79500   -0.66123
      H    H2363    12.87030    3.78693   -1.35869
      O    O2364    16.75446    3.62514   -5.86205
      H    H2365    16.94952    4.52348   -5.59531
      H    H2366    15.96744    3.39385   -5.36876
      O    O2367     3.55059   19.30646   -5.42279
      H    H2368     3.02535   19.68726   -6.12659
      H    H2369     3.47504   19.93153   -4.70182
      O    O2370     4.93963    4.97122   -6.82442
      H    H2371     5.46891    4.18420   -6.95363
      H    H2372     5.57246    5.65034   -6.59087
      O    O2373     7.13342    4.70873   -3.76988
      H    H2374     6.50369    4.00746   -3.60287
      H    H2375     6.59393    5.46914   -3.98657
      O    O2376    10.07261   21.32265    8.90118
      H    H2377    10.99934   21.08708    8.94478
      H    H2378    10.05765   22.14985    8.41978
      O    O2379    18.30712   20.86521   -4.10140
      H    H2380    18.48234   20.17898   -4.74530
      H    H2381    17.60927   21.38992   -4.49373
      O    O2382     7.25897    3.98713    8.66537
      H    H2383     6.97740    4.49049    7.90145
      H    H2384     7.64094    3.18930    8.29958
      O    O2385     6.14988   21.25469   -6.54786
      H    H2386     6.88176   20.97062   -7.09548
      H    H2387     6.40925   21.01602   -5.65793
      O    O2388     5.31136   17.37117   -6.54323
      H    H2389     4.68225   17.83968   -5.99465
      H    H2390     5.42614   16.52609   -6.10861
      O    O2391    13.86052    3.40249    9.24341
      H    H2392    13.74706    3.72195   10.13857
      H    H2393    14.67749    3.80374    8.94714
      O    O2394    16.64037   20.54964    8.72528
      H    H2395    17.43290   20.05456    8.51788
      H    H2396    16.93368   21.22865    9.33284
      O    O2397    31.54068   11.42173   -1.61876
      H    H2398    31.46009   10.50719   -1.88959
      H    H2399    31.12713   11.91844   -2.32479
      O    O2400    29.67249   13.19964    0.26216
      H    H2401    28.89670   12.71968    0.55202
      H    H2402    30.32378   12.52020    0.08778
      O    O2403    33.69323   17.60565   -0.95792
      H    H2404    33.23138   16.83438   -0.62921
      H    H2405    34.50579   17.63226   -0.45268
      O    O2406    22.09827    8.47181   -5.07602
      H    H2407    21.20994    8.81340   -5.17803
      H    H2408    22.38238    8.27184   -5.96794
      O    O2409    20.06157   11.07237    0.80795
      H    H2410    20.63318   10.30459    0.80831
      H    H2411    20.06172   11.37125   -0.10139
      O    O2412    29.91956   19.89146   -1.33752
      H    H2413    29.30071   20.34721   -1.90808
      H    H2414    30.77474   20.04660   -1.73855
      O    O2415    29.11339   15.87535    0.26918
      H    H2416    29.04421   14.93435    0.10809
      H    H2417    29.87537   15.96550    0.84144
      O    O2418    21.30405    6.48081    2.59484
      H    H2419    21.12434    5.58338    2.87512
      H    H2420    20.90206    7.02799    3.26954
      O    O2421    30.14390    8.68239    0.49607
      H    H2422    30.52039    7.80958    0.38344
      H    H2423    30.04585    9.01826   -0.39488
      O    O2424    24.27440    7.05496   -4.04218
      H    H2425    24.38108    7.95533   -3.73531
      H    H2426    23.36364    7.00675   -4.33272
      O    O2427    33.92632    6.17744   -2.57109
      H    H2428    34.74728    5.68709   -2.52854
      H    H2429    33.95972    6.76720   -1.81791
      O    O2430    21.92272    8.97686    1.20308
      H    H2431    22.60373    9.24069    1.82182
      H    H2432    21.60753    8.13694    1.53688
      O    O2433    38.21627    8.19411    3.99327
      H    H2434    37.51149    8.58228    3.47478
      H    H2435    38.48206    8.88914    4.59536
      O    O2436    24.39879    4.66345    4.55668
      H    H2437    24.40063    5.18069    3.75127
      H    H2438    23.56922    4.18647    4.53367
      O    O2439    30.78590   14.77538   -3.94433
      H    H2440    30.16762   15.24032   -4.50806
      H    H2441    31.29822   15.46813   -3.52738
      O    O2442    34.16246    8.11747    0.20166
      H    H2443    33.45802    8.40596    0.78197
      H    H2444    34.52368    8.92749   -0.15838
      O    O2445    24.08032    6.37444    2.56372
      H    H2446    24.42200    7.21865    2.26911
      H    H2447    23.14190    6.52282    2.68026
      O    O2448    20.15422   15.46103   -6.57037
      H    H2449    19.77701   15.94974   -7.30188
      H    H2450    20.41152   16.13356   -5.93972
      O    O2451    35.77874   17.73499    2.46441
      H    H2452    35.09509   18.40490    2.45608
      H    H2453    36.31817   17.93305    1.69890
      O    O2454    37.23116    7.56295    0.59258
      H    H2455    36.28365    7.59685    0.72413
      H    H2456    37.55615    8.37685    0.97752
      O    O2457    27.76311    3.86267   -1.11182
      H    H2458    28.07061    3.30736   -1.82827
      H    H2459    26.83318    3.99712   -1.29452
      O    O2460    33.31462   19.57940    1.17893
      H    H2461    33.32733   19.17563    0.31115
      H    H2462    32.76214   20.35413    1.07507
      O    O2463    34.60916   16.30102   -3.73206
      H    H2464    34.49879   15.35846   -3.60711
      H    H2465    34.60598   16.66259   -2.84578
      O    O2466    32.71316   14.48238    2.50719
      H    H2467    33.13004   14.26840    1.67253
      H    H2468    33.43714   14.73966    3.07805
      O    O2469    30.15119   11.92755   -4.37581
      H    H2470    29.22411   11.86129   -4.14696
      H    H2471    30.30367   12.86557   -4.49028
      O    O2472    30.13809    8.19925   -7.37909
      H    H2473    29.19846    8.36065   -7.29384
      H    H2474    30.45642    8.91782   -7.92549
      O    O2475    36.65937   12.88111    2.59881
      H    H2476    35.83123   12.95042    2.12383
      H    H2477    37.25442   13.46654    2.13040
      O    O2478    34.18091   13.48958   -3.87228
      H    H2479    33.56216   13.15154   -4.51965
      H    H2480    34.16336   12.84556   -3.16436
      O    O2481    33.62357    9.66804    3.54430
      H    H2482    33.21069   10.49341    3.79830
      H    H2483    32.89117    9.08254    3.35194
      O    O2484    34.31358   19.71397    4.23240
      H    H2485    33.83664   20.52119    4.03966
      H    H2486    33.62976   19.06180    4.38502
      O    O2487    32.35738   12.72827   -6.86501
      H    H2488    32.79671   11.89051   -7.01122
      H    H2489    33.07023   13.36121   -6.77859
      O    O2490    30.46692   17.66787   -2.89688
      H    H2491    30.90651   18.41031   -3.31134
      H    H2492    30.40561   17.91053   -1.97299
      O    O2493    35.93910    3.98255   -8.55090
      H    H2494    35.62636    4.07523   -7.65100
      H    H2495    36.70035    4.56065   -8.60116
      O    O2496    22.45731   11.34853   -4.09317
      H    H2497    22.33707   12.07474   -4.70504
      H    H2498    22.14740   10.57882   -4.57038
      O    O2499    37.89350   19.47517    9.30154
      H    H2500    38.36947   19.95345    9.98044
      H    H2501    38.51422   19.40691    8.57609
      O    O2502    20.09585   14.52004    1.71370
      H    H2503    20.17389   14.65492    0.76927
      H    H2504    20.71002   13.81163    1.90651
      O    O2505    21.34061   16.22006   -1.87569
      H    H2506    20.93342   16.36152   -2.73033
      H    H2507    22.23191   15.93608   -2.07857
      O    O2508    37.29683   16.66645    6.46154
      H    H2509    37.42313   16.42764    5.54326
      H    H2510    37.33896   15.83490    6.93375
      O    O2511    31.15850   20.36925    5.03102
      H    H2512    31.67297   20.28005    5.83326
      H    H2513    30.31541   20.71522    5.32381
      O    O2514    33.13394   20.65478   -5.54058
      H    H2515    32.97405   20.36508   -4.64240
      H    H2516    32.96861   19.87880   -6.07606
      O    O2517    25.61278   20.43464   -3.76342
      H    H2518    25.43703   19.51819   -3.97664
      H    H2519    24.75835   20.79337   -3.52364
      O    O2520    32.83655   18.16354   -6.98078
      H    H2521    32.14307   18.16127   -7.64055
      H    H2522    33.57884   17.73947   -7.41136
      O    O2523    32.40155   19.78981   -2.90593
      H    H2524    32.85724   19.00875   -2.59207
      H    H2525    32.74080   20.50049   -2.36181
      O    O2526    37.14923    8.71970    7.42651
      H    H2527    36.53365    9.22766    6.89806
      H    H2528    36.82887    7.81953    7.36911
      O    O2529    20.15180   15.56146    4.25314
      H    H2530    20.31491   15.09199    3.43508
      H    H2531    20.61705   15.05381    4.91803
      O    O2532    24.92368    4.69203   -0.71080
      H    H2533    24.48049    5.47299   -1.04235
      H    H2534    25.48218    5.01502   -0.00371
      O    O2535    29.21066    7.55889    4.89273
      H    H2536    28.74860    7.76719    5.70472
      H    H2537    28.80847    6.74482    4.58980
      O    O2538    34.21111    8.77978    6.02240
      H    H2539    33.36047    8.48036    6.34330
      H    H2540    34.05129    9.02398    5.11078
      O    O2541    31.30608   10.27996    8.12228
      H    H2542    31.63142    9.44633    7.78250
      H    H2543    32.09411   10.80281    8.27011
      O    O2544    28.03956    4.31310   -5.83022
      H    H2545    27.41498    4.30909   -5.10489
      H    H2546    27.95257    3.44620   -6.22662
      O    O2547    26.96127    5.23677    1.14816
      H    H2548    27.25850    6.14305    1.06736
      H    H2549    27.50982    4.74864    0.53412
      O    O2550    24.71510    9.81539   -2.98268
      H    H2551    24.48919    9.59911   -2.07801
      H    H2552    23.93435   10.24824   -3.32808
      O    O2553    31.94488    9.82173   -4.38361
      H    H2554    31.34577   10.54531   -4.56725
      H    H2555    32.49284    9.75941   -5.16597
      O    O2556    30.55136    8.45808   -2.35328
      H    H2557    30.94432    8.77530   -3.16641
      H    H2558    30.91305    7.57927   -2.23883
      O    O2559    22.28608    7.12532    5.83673
      H    H2560    21.89241    7.97284    6.04401
      H    H2561    21.59792    6.48795    6.02759
      O    O2562    28.86058    7.20881    8.90640
      H    H2563    28.17041    7.01603    9.54101
      H    H2564    29.60381    7.49228    9.43883
      O    O2565    19.58778    5.04816   -0.13026
      H    H2566    19.29909    5.61845    0.58223
      H    H2567    20.33236    4.56861    0.23286
      O    O2568    31.13688   11.04866    1.74179
      H    H2569    30.40499   11.55734    2.09080
      H    H2570    30.73931   10.23165    1.44067
      O    O2571    27.57462    7.72408    0.14704
      H    H2572    27.57822    7.28307   -0.70250
      H    H2573    28.46973    8.04581    0.25423
      O    O2574    23.42485    7.60673   -0.89354
      H    H2575    23.08486    8.08425   -0.13683
      H    H2576    22.66259    7.15324   -1.25343
      O    O2577    27.63663    8.72528   -6.86228
      H    H2578    27.75791    8.68393   -5.91370
      H    H2579    27.25148    9.58770   -7.01761
      O    O2580    31.59947    6.50202    1.15409
      H    H2581    31.61674    6.95289    1.99827
      H    H2582    31.35103    5.60259    1.36743
      O    O2583    26.64878   11.03540   -7.46395
      H    H2584    26.08047   10.58722   -8.09036
      H    H2585    27.35768   11.39468   -7.99744
      O    O2586    35.02654    3.91524    6.99273
      H    H2587    35.35112    3.18421    7.51852
      H    H2588    35.06219    3.59661    6.09083
      O    O2589    21.72570   14.93660    6.41272
      H    H2590    21.34118   14.29597    7.01102
      H    H2591    22.03692   15.64021    6.98220
      O    O2592    20.73946    6.52862   -1.97707
      H    H2593    20.45415    6.16419   -1.13921
      H    H2594    20.67735    5.79667   -2.59075
      O    O2595    24.19353   15.03122   -5.19131
      H    H2596    23.41976   14.49098   -5.35144
      H    H2597    24.92299   14.51188   -5.52953
      O    O2598    34.95233   14.02775    0.60133
      H    H2599    35.67224   14.52328    0.21094
      H    H2600    34.75051   13.34954   -0.04328
      O    O2601    30.41332    5.42155   -5.25573
      H    H2602    29.59978    4.92287   -5.33120
      H    H2603    30.21952    6.26137   -5.67210
      O    O2604    30.33421   14.09866    6.48823
      H    H2605    30.26794   13.17823    6.23399
      H    H2606    29.70472   14.19620    7.20269
      O    O2607    33.12816    9.79351   -6.95952
      H    H2608    34.01612   10.10524   -7.13438
      H    H2609    33.09867    8.92074   -7.35146
      O    O2610    24.23727   14.69926   -1.55343
      H    H2611    24.75514   13.89608   -1.60774
      H    H2612    23.78567   14.63717   -0.71175
      O    O2613    29.12422   15.96588   -6.28070
      H    H2614    29.46579   16.71011   -6.77637
      H    H2615    28.29549   16.27900   -5.91822
      O    O2616    21.72172   11.66539    5.35914
      H    H2617    21.36322   12.33078    5.94648
      H    H2618    21.42718   10.83375    5.73040
      O    O2619    30.26588   16.92072    6.23861
      H    H2620    30.28033   15.98881    6.02050
      H    H2621    29.55839   17.00669    6.87759
      O    O2622    35.39959   11.10470   -7.49153
      H    H2623    35.31596   11.53612   -8.34189
      H    H2624    36.11901   11.56453   -7.05885
      O    O2625    36.47700   13.56145    5.58547
      H    H2626    35.75182   14.15433    5.38841
      H    H2627    37.00455   13.55380    4.78680
      O    O2628    36.42831   17.95892   -4.76332
      H    H2629    35.78593   17.30449   -4.48894
      H    H2630    36.04138   18.36443   -5.53925
      O    O2631    32.00696   15.28747   -0.91615
      H    H2632    32.35934   14.69028   -1.57601
      H    H2633    31.12319   14.96189   -0.74532
      O    O2634    28.09329   16.04724   -3.50911
      H    H2635    28.78040   16.59416   -3.12835
      H    H2636    27.30653   16.59131   -3.47415
      O    O2637    20.23253   11.66452   -8.01740
      H    H2638    21.10201   11.94700   -7.73381
      H    H2639    19.74156   12.47811   -8.13252
      O    O2640    27.39601   13.05184   -3.89657
      H    H2641    27.85229   13.86236   -3.67055
      H    H2642    27.04483   12.73415   -3.06472
      O    O2643    29.69927   18.56247    3.33266
      H    H2644    30.34349   18.76841    4.01000
      H    H2645    30.06221   17.80131    2.87974
      O    O2646    23.29719    3.39560   -3.42432
      H    H2647    23.16865    3.38739   -2.47583
      H    H2648    22.47339    3.73391   -3.77522
      O    O2649    30.97248   16.56571    2.05040
      H    H2650    31.61470   15.86502    2.16362
      H    H2651    31.49741   17.34555    1.87009
      O    O2652    34.81805   16.85057   -8.22568
      H    H2653    34.59181   16.13361   -7.63322
      H    H2654    34.42767   16.60181   -9.06351
      O    O2655    32.74624   17.36520    5.25401
      H    H2656    33.08186   17.95187    5.93180
      H    H2657    31.82627   17.23447    5.48379
      O    O2658    20.59965   20.87726   -7.45124
      H    H2659    20.95942   21.47619   -8.10551
      H    H2660    20.45889   21.42325   -6.67773
      O    O2661    34.39968   14.76776   -6.56427
      H    H2662    34.11185   15.22903   -5.77648
      H    H2663    35.19489   14.30754   -6.29584
      O    O2664    20.58384   19.14274    7.02300
      H    H2665    20.69295   18.20222    6.88254
      H    H2666    19.93190   19.40822    6.37438
      O    O2667    28.57510   17.41433    8.42282
      H    H2668    28.25479   16.69526    8.96739
      H    H2669    27.90093   18.08984    8.49642
      O    O2670    26.61652   18.26038   -6.63387
      H    H2671    26.60753   18.99335   -7.24942
      H    H2672    25.69635   18.01353   -6.54117
      O    O2673    22.21718   13.48187   -5.88919
      H    H2674    21.60997   14.22176   -5.87966
      H    H2675    22.69211   13.57180   -6.71537
      O    O2676    31.79046    7.64695    3.78650
      H    H2677    32.15854    6.82647    4.11445
      H    H2678    30.93028    7.70714    4.20206
      O    O2679    35.15666    6.60264   -5.40475
      H    H2680    34.52798    6.70721   -6.11892
      H    H2681    34.66185    6.82232   -4.61536
      O    O2682    29.60248   18.32320   -7.97135
      H    H2683    29.70367   18.11960   -8.90115
      H    H2684    28.70265   18.06903   -7.76657
      O    O2685    27.12506    8.88124   -3.98896
      H    H2686    26.41668    9.34987   -3.54760
      H    H2687    27.40951    8.22344   -3.35444
      O    O2688    28.75066   10.30091    4.01029
      H    H2689    29.24918   10.77549    4.67548
      H    H2690    28.89295    9.37726    4.21730
      O    O2691    31.15661    5.60630   -2.54938
      H    H2692    31.03339    5.62492   -3.49843
      H    H2693    32.10506    5.65420   -2.42954
      O    O2694    28.24429   20.84183   -3.27658
      H    H2695    28.49844   20.80397   -4.19865
      H    H2696    27.29553   20.71517   -3.28376
      O    O2697    25.32857    7.18974   -6.61389
      H    H2698    26.17762    7.62676   -6.67987
      H    H2699    24.96169    7.50177   -5.78668
      O    O2700    35.95734    6.51770    4.85313
      H    H2701    35.45470    7.25824    5.19251
      H    H2702    36.77301    6.90610    4.53681
      O    O2703    34.24954   11.76102   -1.70073
      H    H2704    33.30856   11.77604   -1.52596
      H    H2705    34.56395   10.97462   -1.25470
      O    O2706    24.22771   13.44298   -8.14034
      H    H2707    24.99404   13.33112   -7.57779
      H    H2708    24.30518   12.74678   -8.79266
      O    O2709    22.92238   10.87549   -7.45705
      H    H2710    23.00274    9.92824   -7.34531
      H    H2711    23.81436   11.20618   -7.35098
      O    O2712    36.25210   18.93191   -0.02531
      H    H2713    36.37684   19.75502    0.44708
      H    H2714    37.11866   18.72098   -0.37289
      O    O2715    23.72386   21.02503   -0.35359
      H    H2716    24.46010   20.47657   -0.08274
      H    H2717    24.10795   21.89063   -0.49299
      O    O2718    20.60840   17.09238   -4.47944
      H    H2719    19.68238   17.33450   -4.48890
      H    H2720    21.07405   17.91981   -4.60097
      O    O2721    22.72968   20.20963    8.83497
      H    H2722    23.53096   20.53084    9.24851
      H    H2723    22.21487   19.84919    9.55696
      O    O2724    26.83409   20.19806   -8.53104
      H    H2725    27.62695   20.48694   -8.98286
      H    H2726    26.31452   19.76727   -9.20979
      O    O2727    31.56615   16.31762    8.78251
      H    H2728    30.95996   16.34078    8.04208
      H    H2729    31.26156   15.58592    9.31923
      O    O2730    32.99618   20.04565    7.39345
      H    H2731    33.94836   19.96145    7.34347
      H    H2732    32.84901   20.70982    8.06683
      O    O2733    35.88710   19.42507   -7.10736
      H    H2734    35.60125   19.01158   -7.92194
      H    H2735    35.68906   20.35384   -7.22731
      O    O2736    20.44946   12.69698    7.77857
      H    H2737    20.95337   12.11771    8.35019
      H    H2738    19.71021   12.98100    8.31621
      O    O2739    27.35183   15.41840   -8.66680
      H    H2740    27.24689   14.80363   -7.94066
      H    H2741    27.18425   14.89499   -9.45050
      O    O2742    30.59210   14.48040   -8.06260
      H    H2743    30.04311   14.92733   -7.41833
      H    H2744    31.21403   13.97533   -7.53883
      O    O2745    34.64559   15.83461    7.86962
      H    H2746    35.38654   16.17219    7.36637
      H    H2747    33.88286   16.00382    7.31660
      O    O2748    22.48177   10.83994    8.67358
      H    H2749    22.52231   10.54133    9.58210
      H    H2750    23.33632   11.24070    8.51433
      O    O2751    26.25961   13.43949   -6.16607
      H    H2752    26.68125   13.27348   -5.32293
      H    H2753    26.38470   12.62952   -6.66056
      O    O2754    28.77238   12.46325   -8.91836
      H    H2755    29.29294   11.74816   -9.28425
      H    H2756    29.41922   13.10184   -8.61831
      O    O2757    33.32016   13.88609    6.40515
      H    H2758    33.73426   14.04060    7.25419
      H    H2759    32.38526   14.01162    6.56772
      O    O2760    33.79238   11.22571    8.40906
      H    H2761    34.37445   10.47094    8.32111
      H    H2762    33.96855   11.75645    7.63221
      O    O2763    24.90958    6.38539    6.72076
      H    H2764    24.81527    5.76746    5.99584
      H    H2765    24.32932    7.11201    6.49375
      O    O2766    27.67573    4.94271    3.75349
      H    H2767    27.22746    4.96514    2.90805
      H    H2768    27.04225    4.54461    4.35052
      O    O2769    30.41807   11.56976    5.75852
      H    H2770    30.53769   10.97387    6.49801
      H    H2771    31.27747   11.60673    5.33865
      O    O2772    32.75686   12.12348    4.33477
      H    H2773    32.23038   12.64774    3.73129
      H    H2774    33.10000   12.75622    4.96575
      O    O2775    27.18495    8.11190    7.01610
      H    H2776    27.77492    7.80348    7.70389
      H    H2777    26.36697    7.63987    7.17209
      O    O2778    32.00429    7.72848    7.24941
      H    H2779    31.31584    7.06663    7.18441
      H    H2780    32.72489    7.28230    7.69425
      O    O2781    32.63433    4.32364   -6.69157
      H    H2782    32.91456    3.48043   -6.33563
      H    H2783    31.86091    4.55595   -6.17769
      O    O2784    28.78865   21.37856    5.74918
      H    H2785    28.71452   22.28208    6.05641
      H    H2786    27.88653   21.05975    5.72138
      O    O2787    27.17227    5.55634   -8.24685
      H    H2788    26.82447    4.87874   -8.82660
      H    H2789    27.37355    5.09529   -7.43251
      O    O2790    29.33718   20.54442   -6.62819
      H    H2791    30.23226   20.88291   -6.60631
      H    H2792    29.36894   19.82236   -7.25576
      O    O2793    22.97679   15.91712   -8.39949
      H    H2794    23.41428   16.46009   -7.74373
      H    H2795    23.46157   15.09182   -8.38985
      O    O2796    20.19137   18.70602   -0.94746
      H    H2797    20.52168   17.83813   -1.17960
      H    H2798    20.62047   18.91188   -0.11697
      O    O2799    24.78757   17.03692   -3.28726
      H    H2800    24.48712   16.91342   -2.38687
      H    H2801    24.68132   16.17778   -3.69569
      O    O2802    20.68040   19.57308    1.79070
      H    H2803    20.24349   19.75316    2.62312
      H    H2804    21.24816   20.33054    1.64887
      O    O2805    36.31661   19.07478    6.07843
      H    H2806    35.71681   19.13404    5.33482
      H    H2807    36.44600   18.13528    6.20812
      O    O2808    37.55676   16.81656   -8.58460
      H    H2809    36.72605   16.88423   -8.11387
      H    H2810    37.73394   17.70698   -8.88791
      O    O2811    37.01240   13.56131   -6.08118
      H    H2812    37.77430   14.13098   -5.97521
      H    H2813    37.02784   12.99403   -5.31035
      O    O2814    20.51284   12.08511   -1.85041
      H    H2815    19.85772   11.81627   -2.49444
      H    H2816    21.35063   11.97555   -2.30021
      O    O2817    38.01840   14.41632   -1.23698
      H    H2818    38.38928   13.63305   -1.64339
      H    H2819    38.65859   15.10523   -1.41525
      O    O2820    35.00178   15.79998    4.17605
      H    H2821    34.18776   16.22970    4.43863
      H    H2822    35.40920   16.41182    3.56295
      O    O2823    37.06432   13.85475   -8.92392
      H    H2824    37.33921   14.76264   -9.05200
      H    H2825    36.87540   13.79100   -7.98773
      O    O2826    33.46188    6.87923   -7.62856
      H    H2827    33.88037    6.69233   -8.46890
      H    H2828    33.15549    6.02714   -7.31827
      O    O2829    36.96086   11.79165   -3.93098
      H    H2830    36.58522   11.02444   -4.36285
      H    H2831    36.23117   12.17392   -3.44349
      O    O2832    21.55043   12.47036    2.68992
      H    H2833    21.91774   12.38310    3.56953
      H    H2834    20.98151   11.70702    2.59061
      O    O2835    36.35082   10.93880    5.70297
      H    H2836    36.11943   10.71008    4.80277
      H    H2837    36.61127   11.85876    5.65746
      O    O2838    21.10203    9.38127    6.59577
      H    H2839    20.20764    9.34795    6.93514
      H    H2840    21.64179    9.57995    7.36089
      O    O2841    34.78962    6.16444    8.48094
      H    H2842    35.66664    6.17278    8.86434
      H    H2843    34.80171    5.42753    7.87018
      O    O2844    19.72665    9.29500   -5.90788
      H    H2845    18.82305    9.55802   -6.08271
      H    H2846    20.21071    9.56612   -6.68788
      O    O2847    36.23595   10.01740   -0.63026
      H    H2848    36.75970    9.52366   -1.26124
      H    H2849    36.82189   10.15243    0.11450
      O    O2850    36.41492   10.10138    2.89170
      H    H2851    35.46519   10.06774    3.00620
      H    H2852    36.59622   11.01140    2.65667
      O    O2853    22.26937    8.35155   -7.99844
      H    H2854    22.97854    7.92987   -8.48371
      H    H2855    21.55336    8.41908   -8.63010
      O    O2856    35.72595    9.27473   -4.69102
      H    H2857    36.22186    9.04182   -3.90613
      H    H2858    35.52756    8.43592   -5.10725
      O    O2859    21.60600    3.65610    0.94409
      H    H2860    22.25362    3.10584    0.50360
      H    H2861    22.02619    3.91042    1.76567
      O    O2862    37.15466    7.91083   -2.15725
      H    H2863    37.04459    7.75643   -1.21902
      H    H2864    37.91542    7.38292   -2.39971
      O    O2865    35.50124    3.85024    4.30105
      H    H2866    36.13846    4.46365    4.66697
      H    H2867    35.64873    3.88631    3.35597
      O    O2868    38.04369    5.74162   -8.91663
      H    H2869    38.96862    5.60974   -9.12481
      H    H2870    38.02127    5.82090   -7.96299
      O    O2871    38.11754    6.51269   -6.29096
      H    H2872    37.32269    6.44720   -5.76167
      H    H2873    38.32187    7.44775   -6.30243
      O    O2874    35.05938   20.55184   -2.29712
      H    H2875    35.65529   20.23030   -2.97368
      H    H2876    35.31720   20.07902   -1.50580
      O    O2877    21.35920    3.81167    3.68662
      H    H2878    21.01068    4.26805    4.45244
      H    H2879    21.02797    2.91738    3.76886
      O    O2880    22.96564   16.98363    7.85194
      H    H2881    22.92260   16.61292    8.73338
      H    H2882    23.09674   17.92139    7.99212
      O    O2883    28.87168    5.00286    7.20856
      H    H2884    28.81057    5.59504    7.95810
      H    H2885    29.81172    4.89546    7.06359
      O    O2886    31.50914    4.65987    6.84779
      H    H2887    32.12318    4.97779    6.18590
      H    H2888    32.05410    4.17472    7.46738
      O    O2889    37.92666   20.55903    4.25397
      H    H2890    37.43249   20.95592    3.53669
      H    H2891    37.31799   19.93395    4.64770
      O    O2892    22.03127    3.33929    6.96170
      H    H2893    22.57957    3.15810    6.19831
      H    H2894    22.09680    2.54870    7.49733
      O    O2895    22.80444   19.92986    4.97172
      H    H2896    22.21047   19.79833    5.71072
      H    H2897    22.79683   19.09367    4.50593
      O    O2898    32.24994    3.22308    3.17472
      H    H2899    31.37593    3.55659    2.97201
      H    H2900    32.14102    2.75040    3.99991
      O    O2901    33.15714    5.43017    4.55889
      H    H2902    32.82848    4.61534    4.17906
      H    H2903    34.10537    5.38715    4.43546
      O    O2904    35.61060   21.20137    1.53265
      H    H2905    35.15090   21.95295    1.15845
      H    H2906    34.98185   20.48202    1.47413
      O    O2907    22.43567   17.29569    3.92252
      H    H2908    21.70907   16.67622    3.85512
      H    H2909    22.49658   17.68976    3.05233
      O    O2910    28.77973   20.40104    1.53436
      H    H2911    29.06751   20.14647    0.65766
      H    H2912    29.29205   19.84878    2.12492
      O    O2913    29.99743    4.14006    2.11401
      H    H2914    29.21461    4.61461    2.39369
      H    H2915    29.70372    3.23555    2.00533
      O    O2916    34.54953    4.84237    0.15892
      H    H2917    34.99034    4.78688   -0.68892
      H    H2918    34.28029    5.75817    0.22994
      O    O2919    36.41339    4.47390   -1.83020
      H    H2920    36.35223    3.53002   -1.97710
      H    H2921    37.19259    4.58191   -1.28485
      O    O2922    20.71867   20.61313   -2.86780
      H    H2923    20.55087   19.98020   -2.16961
      H    H2924    19.85212   20.81907   -3.21838
      O    O2925    21.34147    4.44481   -5.36462
      H    H2926    22.09940    4.55770   -5.93821
      H    H2927    20.87918    5.28173   -5.41027
      O    O2928    27.88285    6.55874   -2.37439
      H    H2929    27.07030    6.18443   -2.71480
      H    H2930    28.38701    5.80325   -2.07227
      O    O2931    32.38535    3.22298   -1.13608
      H    H2932    32.98828    3.79500   -0.66123
      H    H2933    31.64465    3.78693   -1.35869
      O    O2934    35.52881    3.62514   -5.86205
      H    H2935    35.72387    4.52348   -5.59531
      H    H2936    34.74179    3.39385   -5.36876
      O    O2937    22.32494   19.30646   -5.42279
      H    H2938    21.79970   19.68726   -6.12659
      H    H2939    22.24939   19.93153   -4.70182
      O    O2940    23.71398    4.97122   -6.82442
      H    H2941    24.24326    4.18420   -6.95363
      H    H2942    24.34681    5.65034   -6.59087
      O    O2943    25.90777    4.70873   -3.76988
      H    H2944    25.27804    4.00746   -3.60287
      H    H2945    25.36828    5.46914   -3.98657
      O    O2946    28.84696   21.32265    8.90118
      H    H2947    29.77369   21.08708    8.94478
      H    H2948    28.83200   22.14985    8.41978
      O    O2949    37.08147   20.86521   -4.10140
      H    H2950    37.25669   20.17898   -4.74530
      H    H2951    36.38362   21.38992   -4.49373
      O    O2952    26.03332    3.98713    8.66537
      H    H2953    25.75175    4.49049    7.90145
      H    H2954    26.41529    3.18930    8.29958
      O    O2955    24.92423   21.25469   -6.54786
      H    H2956    25.65611   20.97062   -7.09548
      H    H2957    25.18360   21.01602   -5.65793
      O    O2958    24.08571   17.37117   -6.54323
      H    H2959    23.45660   17.83968   -5.99465
      H    H2960    24.20049   16.52609   -6.10861
      O    O2961    32.63487    3.40249    9.24341
      H    H2962    32.52141    3.72195   10.13857
      H    H2963    33.45184    3.80374    8.94714
      O    O2964    35.41472   20.54964    8.72528
      H    H2965    36.20725   20.05456    8.51788
      H    H2966    35.70803   21.22865    9.33284
      O    O2967    -6.00802   30.19608   -1.61876
      H    H2968    -6.08861   29.28154   -1.88959
      H    H2969    -6.42157   30.69279   -2.32479
      O    O2970    -7.87621   31.97399    0.26216
      H    H2971    -8.65200   31.49403    0.55202
      H    H2972    -7.22492   31.29455    0.08778
      O    O2973    -3.85547   36.38000   -0.95792
      H    H2974    -4.31732   35.60873   -0.62921
      H    H2975    -3.04291   36.40661   -0.45268
      O    O2976    -7.62914   38.66581   -1.33752
      H    H2977    -8.24799   39.12156   -1.90808
      H    H2978    -6.77396   38.82095   -1.73855
      O    O2979    -8.43531   34.64970    0.26918
      H    H2980    -8.50449   33.70870    0.10809
      H    H2981    -7.67333   34.73985    0.84144
      O    O2982    -7.40480   27.45674    0.49607
      H    H2983    -7.02831   26.58393    0.38344
      H    H2984    -7.50285   27.79261   -0.39488
      O    O2985    -3.62238   24.95179   -2.57109
      H    H2986    -2.80142   24.46144   -2.52854
      H    H2987    -3.58898   25.54155   -1.81791
      O    O2988     0.66757   26.96846    3.99327
      H    H2989    -0.03721   27.35663    3.47478
      H    H2990     0.93336   27.66349    4.59536
      O    O2991    -6.76280   33.54973   -3.94433
      H    H2992    -7.38108   34.01467   -4.50806
      H    H2993    -6.25048   34.24248   -3.52738
      O    O2994    -3.38624   26.89182    0.20166
      H    H2995    -4.09068   27.18031    0.78197
      H    H2996    -3.02502   27.70184   -0.15838
      O    O2997    -1.76996   36.50934    2.46441
      H    H2998    -2.45361   37.17925    2.45608
      H    H2999    -1.23053   36.70740    1.69890
      O    O3000    -0.31754   26.33730    0.59258
      H    H3001    -1.26505   26.37120    0.72413
      H    H3002     0.00745   27.15120    0.97752
      O    O3003    -4.23408   38.35375    1.17893
      H    H3004    -4.22137   37.94998    0.31115
      H    H3005    -4.78656   39.12848    1.07507
      O    O3006    -2.93954   35.07537   -3.73206
      H    H3007    -3.04991   34.13281   -3.60711
      H    H3008    -2.94272   35.43694   -2.84578
      O    O3009    -4.83554   33.25673    2.50719
      H    H3010    -4.41866   33.04275    1.67253
      H    H3011    -4.11156   33.51401    3.07805
      O    O3012    -7.39751   30.70190   -4.37581
      H    H3013    -8.32459   30.63564   -4.14696
      H    H3014    -7.24503   31.63992   -4.49028
      O    O3015    -7.41061   26.97360   -7.37909
      H    H3016    -8.35024   27.13500   -7.29384
      H    H3017    -7.09228   27.69217   -7.92549
      O    O3018    -0.88933   31.65546    2.59881
      H    H3019    -1.71747   31.72477    2.12383
      H    H3020    -0.29428   32.24089    2.13040
      O    O3021    -3.36779   32.26393   -3.87228
      H    H3022    -3.98654   31.92589   -4.51965
      H    H3023    -3.38534   31.61991   -3.16436
      O    O3024    -3.92513   28.44239    3.54430
      H    H3025    -4.33801   29.26776    3.79830
      H    H3026    -4.65753   27.85689    3.35194
      O    O3027    -3.23512   38.48832    4.23240
      H    H3028    -3.71206   39.29554    4.03966
      H    H3029    -3.91894   37.83615    4.38502
      O    O3030    -5.19132   31.50262   -6.86501
      H    H3031    -4.75199   30.66486   -7.01122
      H    H3032    -4.47847   32.13556   -6.77859
      O    O3033    -7.08178   36.44222   -2.89688
      H    H3034    -6.64219   37.18466   -3.31134
      H    H3035    -7.14309   36.68488   -1.97299
      O    O3036    -1.60960   22.75690   -8.55090
      H    H3037    -1.92234   22.84958   -7.65100
      H    H3038    -0.84835   23.33500   -8.60116
      O    O3039     0.34480   38.24952    9.30154
      H    H3040     0.82077   38.72780    9.98044
      H    H3041     0.96552   38.18126    8.57609
      O    O3042    -0.25187   35.44080    6.46154
      H    H3043    -0.12557   35.20199    5.54326
      H    H3044    -0.20974   34.60925    6.93375
      O    O3045    -6.39020   39.14360    5.03102
      H    H3046    -5.87573   39.05440    5.83326
      H    H3047    -7.23329   39.48957    5.32381
      O    O3048    -4.41476   39.42913   -5.54058
      H    H3049    -4.57465   39.13943   -4.64240
      H    H3050    -4.58009   38.65315   -6.07606
      O    O3051    -4.71215   36.93789   -6.98078
      H    H3052    -5.40563   36.93562   -7.64055
      H    H3053    -3.96986   36.51382   -7.41136
      O    O3054    -5.14715   38.56416   -2.90593
      H    H3055    -4.69146   37.78310   -2.59207
      H    H3056    -4.80790   39.27484   -2.36181
      O    O3057    -0.39947   27.49405    7.42651
      H    H3058    -1.01505   28.00201    6.89806
      H    H3059    -0.71983   26.59388    7.36911
      O    O3060    -8.33804   26.33324    4.89273
      H    H3061    -8.80010   26.54154    5.70472
      H    H3062    -8.74023   25.51917    4.58980
      O    O3063    -3.33759   27.55413    6.02240
      H    H3064    -4.18823   27.25471    6.34330
      H    H3065    -3.49741   27.79833    5.11078
      O    O3066    -6.24262   29.05431    8.12228
      H    H3067    -5.91728   28.22068    7.78250
      H    H3068    -5.45459   29.57716    8.27011
      O    O3069    -5.60382   28.59608   -4.38361
      H    H3070    -6.20293   29.31966   -4.56725
      H    H3071    -5.05586   28.53376   -5.16597
      O    O3072    -6.99734   27.23243   -2.35328
      H    H3073    -6.60438   27.54965   -3.16641
      H    H3074    -6.63565   26.35362   -2.23883
      O    O3075    -8.68812   25.98316    8.90640
      H    H3076    -9.37829   25.79038    9.54101
      H    H3077    -7.94489   26.26663    9.43883
      O    O3078    -6.41182   29.82301    1.74179
      H    H3079    -7.14371   30.33169    2.09080
      H    H3080    -6.80939   29.00600    1.44067
      O    O3081    -5.94923   25.27637    1.15409
      H    H3082    -5.93196   25.72724    1.99827
      H    H3083    -6.19767   24.37694    1.36743
      O    O3084    -2.52216   22.68959    6.99273
      H    H3085    -2.19758   21.95856    7.51852
      H    H3086    -2.48651   22.37096    6.09083
      O    O3087    -2.59637   32.80210    0.60133
      H    H3088    -1.87646   33.29763    0.21094
      H    H3089    -2.79819   32.12389   -0.04328
      O    O3090    -7.13538   24.19590   -5.25573
      H    H3091    -7.94892   23.69722   -5.33120
      H    H3092    -7.32918   25.03572   -5.67210
      O    O3093    -7.21449   32.87301    6.48823
      H    H3094    -7.28076   31.95258    6.23399
      H    H3095    -7.84398   32.97055    7.20269
      O    O3096    -4.42054   28.56786   -6.95952
      H    H3097    -3.53258   28.87959   -7.13438
      H    H3098    -4.45003   27.69509   -7.35146
      O    O3099    -8.42448   34.74023   -6.28070
      H    H3100    -8.08291   35.48446   -6.77637
      H    H3101    -9.25321   35.05335   -5.91822
      O    O3102    -7.28282   35.69507    6.23861
      H    H3103    -7.26837   34.76316    6.02050
      H    H3104    -7.99031   35.78104    6.87759
      O    O3105    -2.14911   29.87905   -7.49153
      H    H3106    -2.23274   30.31047   -8.34189
      H    H3107    -1.42969   30.33888   -7.05885
      O    O3108    -1.07170   32.33580    5.58547
      H    H3109    -1.79688   32.92868    5.38841
      H    H3110    -0.54415   32.32815    4.78680
      O    O3111    -1.12039   36.73327   -4.76332
      H    H3112    -1.76277   36.07884   -4.48894
      H    H3113    -1.50732   37.13878   -5.53925
      O    O3114    -5.54174   34.06182   -0.91615
      H    H3115    -5.18936   33.46463   -1.57601
      H    H3116    -6.42551   33.73624   -0.74532
      O    O3117    -7.84943   37.33682    3.33266
      H    H3118    -7.20521   37.54276    4.01000
      H    H3119    -7.48649   36.57566    2.87974
      O    O3120    -6.57622   35.34006    2.05040
      H    H3121    -5.93400   34.63937    2.16362
      H    H3122    -6.05129   36.11990    1.87009
      O    O3123    -2.73065   35.62492   -8.22568
      H    H3124    -2.95689   34.90796   -7.63322
      H    H3125    -3.12103   35.37616   -9.06351
      O    O3126    -4.80246   36.13955    5.25401
      H    H3127    -4.46684   36.72622    5.93180
      H    H3128    -5.72243   36.00882    5.48379
      O    O3129    -3.14902   33.54211   -6.56427
      H    H3130    -3.43685   34.00338   -5.77648
      H    H3131    -2.35381   33.08189   -6.29584
      O    O3132    -5.75824   26.42130    3.78650
      H    H3133    -5.39016   25.60082    4.11445
      H    H3134    -6.61842   26.48149    4.20206
      O    O3135    -2.39204   25.37699   -5.40475
      H    H3136    -3.02072   25.48156   -6.11892
      H    H3137    -2.88685   25.59667   -4.61536
      O    O3138    -7.94622   37.09755   -7.97135
      H    H3139    -7.84503   36.89395   -8.90115
      H    H3140    -8.84605   36.84338   -7.76657
      O    O3141    -8.79804   29.07526    4.01029
      H    H3142    -8.29952   29.54984    4.67548
      H    H3143    -8.65575   28.15161    4.21730
      O    O3144    -6.39209   24.38065   -2.54938
      H    H3145    -6.51531   24.39927   -3.49843
      H    H3146    -5.44364   24.42855   -2.42954
      O    O3147    -1.59136   25.29205    4.85313
      H    H3148    -2.09400   26.03259    5.19251
      H    H3149    -0.77569   25.68045    4.53681
      O    O3150    -3.29916   30.53537   -1.70073
      H    H3151    -4.24014   30.55039   -1.52596
      H    H3152    -2.98475   29.74897   -1.25470
      O    O3153    -1.29660   37.70626   -0.02531
      H    H3154    -1.17186   38.52937    0.44708
      H    H3155    -0.43004   37.49533   -0.37289
      O    O3156    -5.98255   35.09197    8.78251
      H    H3157    -6.58874   35.11513    8.04208
      H    H3158    -6.28714   34.36027    9.31923
      O    O3159    -4.55252   38.82000    7.39345
      H    H3160    -3.60034   38.73580    7.34347
      H    H3161    -4.69969   39.48417    8.06683
      O    O3162    -1.66160   38.19942   -7.10736
      H    H3163    -1.94745   37.78593   -7.92194
      H    H3164    -1.85964   39.12819   -7.22731
      O    O3165    -6.95660   33.25475   -8.06260
      H    H3166    -7.50559   33.70168   -7.41833
      H    H3167    -6.33467   32.74968   -7.53883
      O    O3168    -2.90311   34.60896    7.86962
      H    H3169    -2.16216   34.94654    7.36637
      H    H3170    -3.66584   34.77817    7.31660
      O    O3171    -8.77632   31.23760   -8.91836
      H    H3172    -8.25576   30.52251   -9.28425
      H    H3173    -8.12948   31.87619   -8.61831
      O    O3174    -4.22854   32.66044    6.40515
      H    H3175    -3.81444   32.81495    7.25419
      H    H3176    -5.16344   32.78597    6.56772
      O    O3177    -3.75632   30.00006    8.40906
      H    H3178    -3.17425   29.24529    8.32111
      H    H3179    -3.58015   30.53080    7.63221
      O    O3180    -7.13063   30.34411    5.75852
      H    H3181    -7.01101   29.74822    6.49801
      H    H3182    -6.27123   30.38108    5.33865
      O    O3183    -4.79184   30.89783    4.33477
      H    H3184    -5.31832   31.42209    3.73129
      H    H3185    -4.44870   31.53057    4.96575
      O    O3186    -5.54441   26.50283    7.24941
      H    H3187    -6.23286   25.84098    7.18441
      H    H3188    -4.82381   26.05665    7.69425
      O    O3189    -4.91437   23.09799   -6.69157
      H    H3190    -4.63414   22.25478   -6.33563
      H    H3191    -5.68779   23.33030   -6.17769
      O    O3192    -8.76005   40.15291    5.74918
      H    H3193    -8.83418   41.05643    6.05641
      H    H3194    -9.66217   39.83410    5.72138
      O    O3195    -8.21152   39.31877   -6.62819
      H    H3196    -7.31644   39.65726   -6.60631
      H    H3197    -8.17976   38.59671   -7.25576
      O    O3198    -1.23209   37.84913    6.07843
      H    H3199    -1.83189   37.90839    5.33482
      H    H3200    -1.10270   36.90963    6.20812
      O    O3201     0.00806   35.59091   -8.58460
      H    H3202    -0.82265   35.65858   -8.11387
      H    H3203     0.18524   36.48133   -8.88791
      O    O3204    -0.53630   32.33566   -6.08118
      H    H3205     0.22560   32.90533   -5.97521
      H    H3206    -0.52086   31.76838   -5.31035
      O    O3207     0.46970   33.19067   -1.23698
      H    H3208     0.84058   32.40740   -1.64339
      H    H3209     1.10989   33.87958   -1.41525
      O    O3210    -2.54692   34.57433    4.17605
      H    H3211    -3.36094   35.00405    4.43863
      H    H3212    -2.13950   35.18617    3.56295
      O    O3213    -0.48438   32.62910   -8.92392
      H    H3214    -0.20949   33.53699   -9.05200
      H    H3215    -0.67330   32.56535   -7.98773
      O    O3216    -4.08682   25.65358   -7.62856
      H    H3217    -3.66833   25.46668   -8.46890
      H    H3218    -4.39321   24.80149   -7.31827
      O    O3219    -0.58784   30.56600   -3.93098
      H    H3220    -0.96348   29.79879   -4.36285
      H    H3221    -1.31753   30.94827   -3.44349
      O    O3222    -1.19788   29.71315    5.70297
      H    H3223    -1.42927   29.48443    4.80277
      H    H3224    -0.93743   30.63311    5.65746
      O    O3225    -2.75908   24.93879    8.48094
      H    H3226    -1.88206   24.94713    8.86434
      H    H3227    -2.74699   24.20188    7.87018
      O    O3228    -1.31275   28.79175   -0.63026
      H    H3229    -0.78900   28.29801   -1.26124
      H    H3230    -0.72681   28.92678    0.11450
      O    O3231    -1.13378   28.87573    2.89170
      H    H3232    -2.08351   28.84209    3.00620
      H    H3233    -0.95248   29.78575    2.65667
      O    O3234    -1.82275   28.04908   -4.69102
      H    H3235    -1.32684   27.81617   -3.90613
      H    H3236    -2.02114   27.21027   -5.10725
      O    O3237    -0.39404   26.68518   -2.15725
      H    H3238    -0.50411   26.53078   -1.21902
      H    H3239     0.36672   26.15727   -2.39971
      O    O3240    -2.04746   22.62459    4.30105
      H    H3241    -1.41024   23.23800    4.66697
      H    H3242    -1.89997   22.66066    3.35597
      O    O3243     0.49499   24.51597   -8.91663
      H    H3244     1.41992   24.38409   -9.12481
      H    H3245     0.47257   24.59525   -7.96299
      O    O3246     0.56884   25.28704   -6.29096
      H    H3247    -0.22601   25.22155   -5.76167
      H    H3248     0.77317   26.22210   -6.30243
      O    O3249    -2.48932   39.32619   -2.29712
      H    H3250    -1.89341   39.00465   -2.97368
      H    H3251    -2.23150   38.85337   -1.50580
      O    O3252    -8.67702   23.77721    7.20856
      H    H3253    -8.73813   24.36939    7.95810
      H    H3254    -7.73698   23.66981    7.06359
      O    O3255    -6.03956   23.43422    6.84779
      H    H3256    -5.42552   23.75214    6.18590
      H    H3257    -5.49460   22.94907    7.46738
      O    O3258     0.37796   39.33338    4.25397
      H    H3259    -0.11621   39.73027    3.53669
      H    H3260    -0.23071   38.70830    4.64770
      O    O3261    -5.29876   21.99743    3.17472
      H    H3262    -6.17277   22.33094    2.97201
      H    H3263    -5.40768   21.52475    3.99991
      O    O3264    -4.39156   24.20452    4.55889
      H    H3265    -4.72022   23.38969    4.17906
      H    H3266    -3.44333   24.16150    4.43546
      O    O3267    -1.93810   39.97572    1.53265
      H    H3268    -2.39780   40.72730    1.15845
      H    H3269    -2.56685   39.25637    1.47413
      O    O3270    -8.76897   39.17539    1.53436
      H    H3271    -8.48119   38.92082    0.65766
      H    H3272    -8.25665   38.62313    2.12492
      O    O3273    -7.55127   22.91441    2.11401
      H    H3274    -8.33409   23.38896    2.39369
      H    H3275    -7.84498   22.00990    2.00533
      O    O3276    -2.99917   23.61672    0.15892
      H    H3277    -2.55836   23.56123   -0.68892
      H    H3278    -3.26841   24.53252    0.22994
      O    O3279    -1.13531   23.24825   -1.83020
      H    H3280    -1.19647   22.30437   -1.97710
      H    H3281    -0.35611   23.35626   -1.28485
      O    O3282    -5.16335   21.99733   -1.13608
      H    H3283    -4.56042   22.56935   -0.66123
      H    H3284    -5.90405   22.56128   -1.35869
      O    O3285    -2.01989   22.39949   -5.86205
      H    H3286    -1.82483   23.29783   -5.59531
      H    H3287    -2.80691   22.16820   -5.36876
      O    O3288    -8.70174   40.09700    8.90118
      H    H3289    -7.77501   39.86143    8.94478
      H    H3290    -8.71670   40.92420    8.41978
      O    O3291    -0.46723   39.63956   -4.10140
      H    H3292    -0.29201   38.95333   -4.74530
      H    H3293    -1.16508   40.16427   -4.49373
      O    O3294    -4.91383   22.17684    9.24341
      H    H3295    -5.02729   22.49630   10.13857
      H    H3296    -4.09686   22.57809    8.94714
      O    O3297    -2.13398   39.32399    8.72528
      H    H3298    -1.34145   38.82891    8.51788
      H    H3299    -1.84067   40.00300    9.33284
      O    O3300    12.76633   30.19608   -1.61876
      H    H3301    12.68574   29.28154   -1.88959
      H    H3302    12.35278   30.69279   -2.32479
      O    O3303    10.89814   31.97399    0.26216
      H    H3304    10.12235   31.49403    0.55202
      H    H3305    11.54943   31.29455    0.08778
      O    O3306     4.91472   32.28597    1.13974
      H    H3307     4.08321   32.03084    1.53939
      H    H3308     5.52282   32.35704    1.87553
      O    O3309    14.91888   36.38000   -0.95792
      H    H3310    14.45703   35.60873   -0.62921
      H    H3311    15.73144   36.40661   -0.45268
      O    O3312     4.89485   36.31998    1.33554
      H    H3313     5.19765   35.42975    1.15656
      H    H3314     5.63921   36.87700    1.10777
      O    O3315     3.32392   27.24616   -5.07602
      H    H3316     2.43559   27.58775   -5.17803
      H    H3317     3.60803   27.04619   -5.96794
      O    O3318     1.28722   29.84672    0.80795
      H    H3319     1.85883   29.07894    0.80831
      H    H3320     1.28737   30.14560   -0.10139
      O    O3321    11.14521   38.66581   -1.33752
      H    H3322    10.52636   39.12156   -1.90808
      H    H3323    12.00039   38.82095   -1.73855
      O    O3324    10.33904   34.64970    0.26918
      H    H3325    10.26986   33.70870    0.10809
      H    H3326    11.10102   34.73985    0.84144
      O    O3327     2.52970   25.25516    2.59484
      H    H3328     2.34999   24.35773    2.87512
      H    H3329     2.12771   25.80234    3.26954
      O    O3330    11.36955   27.45674    0.49607
      H    H3331    11.74604   26.58393    0.38344
      H    H3332    11.27150   27.79261   -0.39488
      O    O3333     5.50005   25.82931   -4.04218
      H    H3334     5.60673   26.72968   -3.73531
      H    H3335     4.58929   25.78110   -4.33272
      O    O3336    15.15197   24.95179   -2.57109
      H    H3337    15.97293   24.46144   -2.52854
      H    H3338    15.18537   25.54155   -1.81791
      O    O3339     3.14837   27.75121    1.20308
      H    H3340     3.82938   28.01504    1.82182
      H    H3341     2.83318   26.91129    1.53688
      O    O3342     7.34083   28.79794    0.29034
      H    H3343     7.84865   29.29604    0.93084
      H    H3344     7.87215   28.02146    0.11427
      O    O3345    19.44192   26.96846    3.99327
      H    H3346    18.73714   27.35663    3.47478
      H    H3347    19.70771   27.66349    4.59536
      O    O3348     5.62444   23.43780    4.55668
      H    H3349     5.62628   23.95504    3.75127
      H    H3350     4.79487   22.96082    4.53367
      O    O3351    12.01155   33.54973   -3.94433
      H    H3352    11.39327   34.01467   -4.50806
      H    H3353    12.52387   34.24248   -3.52738
      O    O3354     6.87472   33.07732    2.73403
      H    H3355     6.54166   33.70421    3.37613
      H    H3356     7.05139   33.60350    1.95419
      O    O3357    15.38811   26.89182    0.20166
      H    H3358    14.68367   27.18031    0.78197
      H    H3359    15.74933   27.70184   -0.15838
      O    O3360     5.30597   25.14879    2.56372
      H    H3361     5.64765   25.99300    2.26911
      H    H3362     4.36755   25.29717    2.68026
      O    O3363     6.08663   35.04540    4.54895
      H    H3364     6.70403   35.72050    4.26739
      H    H3365     5.22594   35.45419    4.45770
      O    O3366     1.37987   34.23538   -6.57037
      H    H3367     1.00266   34.72409   -7.30188
      H    H3368     1.63717   34.90791   -5.93972
      O    O3369    17.00439   36.50934    2.46441
      H    H3370    16.32074   37.17925    2.45608
      H    H3371    17.54382   36.70740    1.69890
      O    O3372    18.45681   26.33730    0.59258
      H    H3373    17.50930   26.37120    0.72413
      H    H3374    18.78180   27.15120    0.97752
      O    O3375     8.98876   22.63702   -1.11182
      H    H3376     9.29626   22.08171   -1.82827
      H    H3377     8.05883   22.77147   -1.29452
      O    O3378    14.54027   38.35375    1.17893
      H    H3379    14.55298   37.94998    0.31115
      H    H3380    13.98779   39.12848    1.07507
      O    O3381    15.83481   35.07537   -3.73206
      H    H3382    15.72444   34.13281   -3.60711
      H    H3383    15.83163   35.43694   -2.84578
      O    O3384    13.93881   33.25673    2.50719
      H    H3385    14.35569   33.04275    1.67253
      H    H3386    14.66279   33.51401    3.07805
      O    O3387    11.37684   30.70190   -4.37581
      H    H3388    10.44976   30.63564   -4.14696
      H    H3389    11.52932   31.63992   -4.49028
      O    O3390    11.36374   26.97360   -7.37909
      H    H3391    10.42411   27.13500   -7.29384
      H    H3392    11.68207   27.69217   -7.92549
      O    O3393    17.88502   31.65546    2.59881
      H    H3394    17.05688   31.72477    2.12383
      H    H3395    18.48007   32.24089    2.13040
      O    O3396    15.40656   32.26393   -3.87228
      H    H3397    14.78781   31.92589   -4.51965
      H    H3398    15.38901   31.61991   -3.16436
      O    O3399    14.84922   28.44239    3.54430
      H    H3400    14.43634   29.26776    3.79830
      H    H3401    14.11682   27.85689    3.35194
      O    O3402     6.98250   31.22838   -1.59383
      H    H3403     6.57820   30.51610   -2.08924
      H    H3404     7.06881   30.88370   -0.70503
      O    O3405     7.45067   34.91513    0.57009
      H    H3406     7.15350   34.30968   -0.10913
      H    H3407     8.40065   34.95287    0.45902
      O    O3408     5.69536   28.00270    2.18607
      H    H3409     6.24682   28.11223    1.41140
      H    H3410     6.20971   28.37646    2.90159
      O    O3411    15.53923   38.48832    4.23240
      H    H3412    15.06229   39.29554    4.03966
      H    H3413    14.85541   37.83615    4.38502
      O    O3414     6.54251   34.65330    7.22087
      H    H3415     5.64537   34.87730    7.46821
      H    H3416     6.56780   34.77680    6.27201
      O    O3417    13.58303   31.50262   -6.86501
      H    H3418    14.02236   30.66486   -7.01122
      H    H3419    14.29588   32.13556   -6.77859
      O    O3420     5.36963   31.52464    5.79660
      H    H3421     5.23041   32.39692    6.16534
      H    H3422     4.48777   31.18192    5.65140
      O    O3423    11.69257   36.44222   -2.89688
      H    H3424    12.13216   37.18466   -3.31134
      H    H3425    11.63126   36.68488   -1.97299
      O    O3426     7.16767   37.46681    8.00512
      H    H3427     7.13921   37.87110    7.13796
      H    H3428     7.00417   36.53784    7.84228
      O    O3429    17.16475   22.75690   -8.55090
      H    H3430    16.85201   22.84958   -7.65100
      H    H3431    17.92600   23.33500   -8.60116
      O    O3432     3.68296   30.12288   -4.09317
      H    H3433     3.56272   30.84909   -4.70504
      H    H3434     3.37305   29.35317   -4.57038
      O    O3435    19.11915   38.24952    9.30154
      H    H3436    19.59512   38.72780    9.98044
      H    H3437    19.73987   38.18126    8.57609
      O    O3438     1.32150   33.29439    1.71370
      H    H3439     1.39954   33.42927    0.76927
      H    H3440     1.93567   32.58598    1.90651
      O    O3441     2.56626   34.99441   -1.87569
      H    H3442     2.15907   35.13587   -2.73033
      H    H3443     3.45756   34.71043   -2.07857
      O    O3444    18.52248   35.44080    6.46154
      H    H3445    18.64878   35.20199    5.54326
      H    H3446    18.56461   34.60925    6.93375
      O    O3447    12.38415   39.14360    5.03102
      H    H3448    12.89862   39.05440    5.83326
      H    H3449    11.54106   39.48957    5.32381
      O    O3450    14.35959   39.42913   -5.54058
      H    H3451    14.19970   39.13943   -4.64240
      H    H3452    14.19426   38.65315   -6.07606
      O    O3453     6.83843   39.20899   -3.76342
      H    H3454     6.66268   38.29254   -3.97664
      H    H3455     5.98400   39.56772   -3.52364
      O    O3456    14.06220   36.93789   -6.98078
      H    H3457    13.36872   36.93562   -7.64055
      H    H3458    14.80449   36.51382   -7.41136
      O    O3459    13.62720   38.56416   -2.90593
      H    H3460    14.08289   37.78310   -2.59207
      H    H3461    13.96645   39.27484   -2.36181
      O    O3462    18.37488   27.49405    7.42651
      H    H3463    17.75930   28.00201    6.89806
      H    H3464    18.05452   26.59388    7.36911
      O    O3465     1.37745   34.33581    4.25314
      H    H3466     1.54056   33.86634    3.43508
      H    H3467     1.84270   33.82816    4.91803
      O    O3468     6.14933   23.46638   -0.71080
      H    H3469     5.70614   24.24734   -1.04235
      H    H3470     6.70783   23.78937   -0.00371
      O    O3471    10.43631   26.33324    4.89273
      H    H3472     9.97425   26.54154    5.70472
      H    H3473    10.03412   25.51917    4.58980
      O    O3474    15.43676   27.55413    6.02240
      H    H3475    14.58612   27.25471    6.34330
      H    H3476    15.27694   27.79833    5.11078
      O    O3477    12.53173   29.05431    8.12228
      H    H3478    12.85707   28.22068    7.78250
      H    H3479    13.31976   29.57716    8.27011
      O    O3480     9.26521   23.08745   -5.83022
      H    H3481     8.64063   23.08344   -5.10489
      H    H3482     9.17822   22.22055   -6.22662
      O    O3483     8.18692   24.01112    1.14816
      H    H3484     8.48415   24.91740    1.06736
      H    H3485     8.73547   23.52299    0.53412
      O    O3486     5.94075   28.58974   -2.98268
      H    H3487     5.71484   28.37346   -2.07801
      H    H3488     5.16000   29.02259   -3.32808
      O    O3489    13.17053   28.59608   -4.38361
      H    H3490    12.57142   29.31966   -4.56725
      H    H3491    13.71849   28.53376   -5.16597
      O    O3492     8.38067   29.48830    7.68335
      H    H3493     8.28503   28.54777    7.53339
      H    H3494     9.22387   29.70981    7.28816
      O    O3495    11.77701   27.23243   -2.35328
      H    H3496    12.16997   27.54965   -3.16641
      H    H3497    12.13870   26.35362   -2.23883
      O    O3498     3.51173   25.89967    5.83673
      H    H3499     3.11806   26.74719    6.04401
      H    H3500     2.82357   25.26230    6.02759
      O    O3501    10.08623   25.98316    8.90640
      H    H3502     9.39606   25.79038    9.54101
      H    H3503    10.82946   26.26663    9.43883
      O    O3504     0.81343   23.82251   -0.13026
      H    H3505     0.52474   24.39280    0.58223
      H    H3506     1.55801   23.34296    0.23286
      O    O3507    12.36253   29.82301    1.74179
      H    H3508    11.63064   30.33169    2.09080
      H    H3509    11.96496   29.00600    1.44067
      O    O3510     8.80027   26.49843    0.14704
      H    H3511     8.80387   26.05742   -0.70250
      H    H3512     9.69538   26.82016    0.25423
      O    O3513     4.65050   26.38108   -0.89354
      H    H3514     4.31051   26.85860   -0.13683
      H    H3515     3.88824   25.92759   -1.25343
      O    O3516     8.86228   27.49963   -6.86228
      H    H3517     8.98356   27.45828   -5.91370
      H    H3518     8.47713   28.36205   -7.01761
      O    O3519    12.82512   25.27637    1.15409
      H    H3520    12.84239   25.72724    1.99827
      H    H3521    12.57668   24.37694    1.36743
      O    O3522     7.87443   29.80975   -7.46395
      H    H3523     7.30612   29.36157   -8.09036
      H    H3524     8.58333   30.16903   -7.99744
      O    O3525    16.25219   22.68959    6.99273
      H    H3526    16.57677   21.95856    7.51852
      H    H3527    16.28784   22.37096    6.09083
      O    O3528     2.95135   33.71095    6.41272
      H    H3529     2.56683   33.07032    7.01102
      H    H3530     3.26257   34.41456    6.98220
      O    O3531     9.10106   30.55860    1.89358
      H    H3532     9.46808   30.08446    2.63972
      H    H3533     8.91157   31.43276    2.23442
      O    O3534     1.96511   25.30297   -1.97707
      H    H3535     1.67980   24.93854   -1.13921
      H    H3536     1.90300   24.57102   -2.59075
      O    O3537     6.89100   29.59947    4.21201
      H    H3538     6.58671   30.47867    4.43704
      H    H3539     7.84565   29.65945    4.24775
      O    O3540     5.41918   33.80557   -5.19131
      H    H3541     4.64541   33.26533   -5.35144
      H    H3542     6.14864   33.28623   -5.52953
      O    O3543    16.17798   32.80210    0.60133
      H    H3544    16.89789   33.29763    0.21094
      H    H3545    15.97616   32.12389   -0.04328
      O    O3546    11.63897   24.19590   -5.25573
      H    H3547    10.82543   23.69722   -5.33120
      H    H3548    11.44517   25.03572   -5.67210
      O    O3549    11.55986   32.87301    6.48823
      H    H3550    11.49359   31.95258    6.23399
      H    H3551    10.93037   32.97055    7.20269
      O    O3552    14.35381   28.56786   -6.95952
      H    H3553    15.24177   28.87959   -7.13438
      H    H3554    14.32432   27.69509   -7.35146
      O    O3555     5.46292   33.47361   -1.55343
      H    H3556     5.98079   32.67043   -1.60774
      H    H3557     5.01132   33.41152   -0.71175
      O    O3558    10.34987   34.74023   -6.28070
      H    H3559    10.69144   35.48446   -6.77637
      H    H3560     9.52114   35.05335   -5.91822
      O    O3561     2.94737   30.43974    5.35914
      H    H3562     2.58887   31.10513    5.94648
      H    H3563     2.65283   29.60810    5.73040
      O    O3564     6.14869   30.89817    8.24310
      H    H3565     5.84870   31.04388    7.34588
      H    H3566     6.91981   30.33870    8.15044
      O    O3567    11.49153   35.69507    6.23861
      H    H3568    11.50598   34.76316    6.02050
      H    H3569    10.78404   35.78104    6.87759
      O    O3570    16.62524   29.87905   -7.49153
      H    H3571    16.54161   30.31047   -8.34189
      H    H3572    17.34466   30.33888   -7.05885
      O    O3573    17.70265   32.33580    5.58547
      H    H3574    16.97747   32.92868    5.38841
      H    H3575    18.23020   32.32815    4.78680
      O    O3576    17.65396   36.73327   -4.76332
      H    H3577    17.01158   36.07884   -4.48894
      H    H3578    17.26703   37.13878   -5.53925
      O    O3579    13.23261   34.06182   -0.91615
      H    H3580    13.58499   33.46463   -1.57601
      H    H3581    12.34884   33.73624   -0.74532
      O    O3582     9.31894   34.82159   -3.50911
      H    H3583    10.00605   35.36851   -3.12835
      H    H3584     8.53218   35.36566   -3.47415
      O    O3585     1.45818   30.43887   -8.01740
      H    H3586     2.32766   30.72135   -7.73381
      H    H3587     0.96721   31.25246   -8.13252
      O    O3588     8.62166   31.82619   -3.89657
      H    H3589     9.07794   32.63671   -3.67055
      H    H3590     8.27048   31.50850   -3.06472
      O    O3591    10.92492   37.33682    3.33266
      H    H3592    11.56914   37.54276    4.01000
      H    H3593    11.28786   36.57566    2.87974
      O    O3594     4.52284   22.16995   -3.42432
      H    H3595     4.39430   22.16174   -2.47583
      H    H3596     3.69904   22.50826   -3.77522
      O    O3597    12.19813   35.34006    2.05040
      H    H3598    12.84035   34.63937    2.16362
      H    H3599    12.72306   36.11990    1.87009
      O    O3600    16.04370   35.62492   -8.22568
      H    H3601    15.81746   34.90796   -7.63322
      H    H3602    15.65332   35.37616   -9.06351
      O    O3603    13.97189   36.13955    5.25401
      H    H3604    14.30751   36.72622    5.93180
      H    H3605    13.05192   36.00882    5.48379
      O    O3606     1.82530   39.65161   -7.45124
      H    H3607     2.18507   40.25054   -8.10551
      H    H3608     1.68454   40.19760   -6.67773
      O    O3609     1.52223   23.92907    6.03635
      H    H3610     0.80808   24.12876    6.64161
      H    H3611     1.94173   23.15302    6.40783
      O    O3612    15.62533   33.54211   -6.56427
      H    H3613    15.33750   34.00338   -5.77648
      H    H3614    16.42054   33.08189   -6.29584
      O    O3615     1.80949   37.91709    7.02300
      H    H3616     1.91860   36.97657    6.88254
      H    H3617     1.15755   38.18257    6.37438
      O    O3618     9.80075   36.18868    8.42282
      H    H3619     9.48044   35.46961    8.96739
      H    H3620     9.12658   36.86419    8.49642
      O    O3621     7.84217   37.03473   -6.63387
      H    H3622     7.83318   37.76770   -7.24942
      H    H3623     6.92200   36.78788   -6.54117
      O    O3624     3.44283   32.25622   -5.88919
      H    H3625     2.83562   32.99611   -5.87966
      H    H3626     3.91776   32.34615   -6.71537
      O    O3627    13.01611   26.42130    3.78650
      H    H3628    13.38419   25.60082    4.11445
      H    H3629    12.15593   26.48149    4.20206
      O    O3630    16.38231   25.37699   -5.40475
      H    H3631    15.75363   25.48156   -6.11892
      H    H3632    15.88750   25.59667   -4.61536
      O    O3633    10.82813   37.09755   -7.97135
      H    H3634    10.92932   36.89395   -8.90115
      H    H3635     9.92830   36.84338   -7.76657
      O    O3636     8.35071   27.65559   -3.98896
      H    H3637     7.64233   28.12422   -3.54760
      H    H3638     8.63516   26.99779   -3.35444
      O    O3639     9.97631   29.07526    4.01029
      H    H3640    10.47483   29.54984    4.67548
      H    H3641    10.11860   28.15161    4.21730
      O    O3642    12.38226   24.38065   -2.54938
      H    H3643    12.25904   24.39927   -3.49843
      H    H3644    13.33071   24.42855   -2.42954
      O    O3645     9.46994   39.61618   -3.27658
      H    H3646     9.72409   39.57832   -4.19865
      H    H3647     8.52118   39.48952   -3.28376
      O    O3648     6.55422   25.96409   -6.61389
      H    H3649     7.40327   26.40111   -6.67987
      H    H3650     6.18734   26.27612   -5.78668
      O    O3651    17.18299   25.29205    4.85313
      H    H3652    16.68035   26.03259    5.19251
      H    H3653    17.99866   25.68045    4.53681
      O    O3654    15.47519   30.53537   -1.70073
      H    H3655    14.53421   30.55039   -1.52596
      H    H3656    15.78960   29.74897   -1.25470
      O    O3657     5.45336   32.21733   -8.14034
      H    H3658     6.21969   32.10547   -7.57779
      H    H3659     5.53083   31.52113   -8.79266
      O    O3660     4.14803   29.64984   -7.45705
      H    H3661     4.22839   28.70259   -7.34531
      H    H3662     5.04001   29.98053   -7.35098
      O    O3663    17.47775   37.70626   -0.02531
      H    H3664    17.60249   38.52937    0.44708
      H    H3665    18.34431   37.49533   -0.37289
      O    O3666     4.94951   39.79938   -0.35359
      H    H3667     5.68575   39.25092   -0.08274
      H    H3668     5.33360   40.66498   -0.49299
      O    O3669     1.83405   35.86673   -4.47944
      H    H3670     0.90803   36.10885   -4.48890
      H    H3671     2.29970   36.69416   -4.60097
      O    O3672     3.95533   38.98398    8.83497
      H    H3673     4.75661   39.30519    9.24851
      H    H3674     3.44052   38.62354    9.55696
      O    O3675     8.05974   38.97241   -8.53104
      H    H3676     8.85260   39.26129   -8.98286
      H    H3677     7.54017   38.54162   -9.20979
      O    O3678    12.79180   35.09197    8.78251
      H    H3679    12.18561   35.11513    8.04208
      H    H3680    12.48721   34.36027    9.31923
      O    O3681    14.22183   38.82000    7.39345
      H    H3682    15.17401   38.73580    7.34347
      H    H3683    14.07466   39.48417    8.06683
      O    O3684    17.11275   38.19942   -7.10736
      H    H3685    16.82690   37.78593   -7.92194
      H    H3686    16.91471   39.12819   -7.22731
      O    O3687     1.67511   31.47133    7.77857
      H    H3688     2.17902   30.89206    8.35019
      H    H3689     0.93586   31.75535    8.31621
      O    O3690     8.57748   34.19275   -8.66680
      H    H3691     8.47254   33.57798   -7.94066
      H    H3692     8.40990   33.66934   -9.45050
      O    O3693     8.72891   32.87843    7.31212
      H    H3694     7.96348   33.44693    7.22759
      H    H3695     8.91050   32.58605    6.41895
      O    O3696    11.81775   33.25475   -8.06260
      H    H3697    11.26876   33.70168   -7.41833
      H    H3698    12.43968   32.74968   -7.53883
      O    O3699    15.87124   34.60896    7.86962
      H    H3700    16.61219   34.94654    7.36637
      H    H3701    15.10851   34.77817    7.31660
      O    O3702     3.70742   29.61429    8.67358
      H    H3703     3.74796   29.31568    9.58210
      H    H3704     4.56197   30.01505    8.51433
      O    O3705     7.48526   32.21384   -6.16607
      H    H3706     7.90690   32.04783   -5.32293
      H    H3707     7.61035   31.40387   -6.66056
      O    O3708     5.64800   28.19350    6.64103
      H    H3709     5.11765   27.70259    6.01336
      H    H3710     6.31681   28.62192    6.10682
      O    O3711     9.99803   31.23760   -8.91836
      H    H3712    10.51859   30.52251   -9.28425
      H    H3713    10.64487   31.87619   -8.61831
      O    O3714    14.54581   32.66044    6.40515
      H    H3715    14.95991   32.81495    7.25419
      H    H3716    13.61091   32.78597    6.56772
      O    O3717    15.01803   30.00006    8.40906
      H    H3718    15.60010   29.24529    8.32111
      H    H3719    15.19420   30.53080    7.63221
      O    O3720     6.13523   25.15974    6.72076
      H    H3721     6.04092   24.54181    5.99584
      H    H3722     5.55497   25.88636    6.49375
      O    O3723     8.90138   23.71706    3.75349
      H    H3724     8.45311   23.73949    2.90805
      H    H3725     8.26790   23.31896    4.35052
      O    O3726     9.30733   32.61249    4.37474
      H    H3727     9.72614   33.45577    4.20236
      H    H3728     8.38820   32.74970    4.14542
      O    O3729    11.64372   30.34411    5.75852
      H    H3730    11.76334   29.74822    6.49801
      H    H3731    12.50312   30.38108    5.33865
      O    O3732    13.98251   30.89783    4.33477
      H    H3733    13.45603   31.42209    3.73129
      H    H3734    14.32565   31.53057    4.96575
      O    O3735     7.15807   38.91779    5.49051
      H    H3736     6.62018   39.64240    5.17138
      H    H3737     7.41147   38.44083    4.70025
      O    O3738     8.41060   26.88625    7.01610
      H    H3739     9.00057   26.57783    7.70389
      H    H3740     7.59262   26.41422    7.17209
      O    O3741    13.22994   26.50283    7.24941
      H    H3742    12.54149   25.84098    7.18441
      H    H3743    13.95054   26.05665    7.69425
      O    O3744    13.85998   23.09799   -6.69157
      H    H3745    14.14021   22.25478   -6.33563
      H    H3746    13.08656   23.33030   -6.17769
      O    O3747    10.01430   40.15291    5.74918
      H    H3748     9.94017   41.05643    6.05641
      H    H3749     9.11218   39.83410    5.72138
      O    O3750     8.39792   24.33069   -8.24685
      H    H3751     8.05012   23.65309   -8.82660
      H    H3752     8.59920   23.86964   -7.43251
      O    O3753    10.56283   39.31877   -6.62819
      H    H3754    11.45791   39.65726   -6.60631
      H    H3755    10.59459   38.59671   -7.25576
      O    O3756     4.20244   34.69147   -8.39949
      H    H3757     4.63993   35.23444   -7.74373
      H    H3758     4.68722   33.86617   -8.38985
      O    O3759     1.41702   37.48037   -0.94746
      H    H3760     1.74733   36.61248   -1.17960
      H    H3761     1.84612   37.68623   -0.11697
      O    O3762     6.01322   35.81127   -3.28726
      H    H3763     5.71277   35.68777   -2.38687
      H    H3764     5.90697   34.95213   -3.69569
      O    O3765     1.90605   38.34743    1.79070
      H    H3766     1.46914   38.52751    2.62312
      H    H3767     2.47381   39.10489    1.64887
      O    O3768    17.54226   37.84913    6.07843
      H    H3769    16.94246   37.90839    5.33482
      H    H3770    17.67165   36.90963    6.20812
      O    O3771    18.78241   35.59091   -8.58460
      H    H3772    17.95170   35.65858   -8.11387
      H    H3773    18.95959   36.48133   -8.88791
      O    O3774    18.23805   32.33566   -6.08118
      H    H3775    18.99995   32.90533   -5.97521
      H    H3776    18.25349   31.76838   -5.31035
      O    O3777     1.73849   30.85946   -1.85041
      H    H3778     1.08337   30.59062   -2.49444
      H    H3779     2.57628   30.74990   -2.30021
      O    O3780    19.24405   33.19067   -1.23698
      H    H3781    19.61493   32.40740   -1.64339
      H    H3782    19.88424   33.87958   -1.41525
      O    O3783    16.22743   34.57433    4.17605
      H    H3784    15.41341   35.00405    4.43863
      H    H3785    16.63485   35.18617    3.56295
      O    O3786    18.28997   32.62910   -8.92392
      H    H3787    18.56486   33.53699   -9.05200
      H    H3788    18.10105   32.56535   -7.98773
      O    O3789    14.68753   25.65358   -7.62856
      H    H3790    15.10602   25.46668   -8.46890
      H    H3791    14.38114   24.80149   -7.31827
      O    O3792    18.18651   30.56600   -3.93098
      H    H3793    17.81087   29.79879   -4.36285
      H    H3794    17.45682   30.94827   -3.44349
      O    O3795     2.77608   31.24471    2.68992
      H    H3796     3.14339   31.15745    3.56953
      H    H3797     2.20716   30.48137    2.59061
      O    O3798    17.57647   29.71315    5.70297
      H    H3799    17.34508   29.48443    4.80277
      H    H3800    17.83692   30.63311    5.65746
      O    O3801     2.32768   28.15562    6.59577
      H    H3802     1.43329   28.12230    6.93514
      H    H3803     2.86744   28.35430    7.36089
      O    O3804    16.01527   24.93879    8.48094
      H    H3805    16.89229   24.94713    8.86434
      H    H3806    16.02736   24.20188    7.87018
      O    O3807     0.95230   28.06935   -5.90788
      H    H3808     0.04870   28.33237   -6.08271
      H    H3809     1.43636   28.34047   -6.68788
      O    O3810    17.46160   28.79175   -0.63026
      H    H3811    17.98535   28.29801   -1.26124
      H    H3812    18.04754   28.92678    0.11450
      O    O3813    17.64057   28.87573    2.89170
      H    H3814    16.69084   28.84209    3.00620
      H    H3815    17.82187   29.78575    2.65667
      O    O3816     3.49502   27.12590   -7.99844
      H    H3817     4.20419   26.70422   -8.48371
      H    H3818     2.77901   27.19343   -8.63010
      O    O3819    16.95160   28.04908   -4.69102
      H    H3820    17.44751   27.81617   -3.90613
      H    H3821    16.75321   27.21027   -5.10725
      O    O3822     2.83165   22.43045    0.94409
      H    H3823     3.47927   21.88019    0.50360
      H    H3824     3.25184   22.68477    1.76567
      O    O3825    18.38031   26.68518   -2.15725
      H    H3826    18.27024   26.53078   -1.21902
      H    H3827    19.14107   26.15727   -2.39971
      O    O3828    16.72689   22.62459    4.30105
      H    H3829    17.36411   23.23800    4.66697
      H    H3830    16.87438   22.66066    3.35597
      O    O3831    19.26934   24.51597   -8.91663
      H    H3832    20.19427   24.38409   -9.12481
      H    H3833    19.24692   24.59525   -7.96299
      O    O3834    19.34319   25.28704   -6.29096
      H    H3835    18.54834   25.22155   -5.76167
      H    H3836    19.54752   26.22210   -6.30243
      O    O3837    16.28503   39.32619   -2.29712
      H    H3838    16.88094   39.00465   -2.97368
      H    H3839    16.54285   38.85337   -1.50580
      O    O3840     2.58485   22.58602    3.68662
      H    H3841     2.23633   23.04240    4.45244
      H    H3842     2.25362   21.69173    3.76886
      O    O3843     4.19129   35.75798    7.85194
      H    H3844     4.14825   35.38727    8.73338
      H    H3845     4.32239   36.69574    7.99212
      O    O3846     7.89189   37.31394    3.45291
      H    H3847     7.65103   37.58140    2.56596
      H    H3848     8.83216   37.48451    3.50800
      O    O3849    10.09733   23.77721    7.20856
      H    H3850    10.03622   24.36939    7.95810
      H    H3851    11.03737   23.66981    7.06359
      O    O3852    12.73479   23.43422    6.84779
      H    H3853    13.34883   23.75214    6.18590
      H    H3854    13.27975   22.94907    7.46738
      O    O3855    19.15231   39.33338    4.25397
      H    H3856    18.65814   39.73027    3.53669
      H    H3857    18.54364   38.70830    4.64770
      O    O3858     3.25692   22.11364    6.96170
      H    H3859     3.80522   21.93245    6.19831
      H    H3860     3.32245   21.32305    7.49733
      O    O3861     4.03009   38.70421    4.97172
      H    H3862     3.43612   38.57268    5.71072
      H    H3863     4.02248   37.86802    4.50593
      O    O3864    13.47559   21.99743    3.17472
      H    H3865    12.60158   22.33094    2.97201
      H    H3866    13.36667   21.52475    3.99991
      O    O3867    14.38279   24.20452    4.55889
      H    H3868    14.05413   23.38969    4.17906
      H    H3869    15.33102   24.16150    4.43546
      O    O3870    16.83625   39.97572    1.53265
      H    H3871    16.37655   40.72730    1.15845
      H    H3872    16.20750   39.25637    1.47413
      O    O3873     3.66132   36.07004    3.92252
      H    H3874     2.93472   35.45057    3.85512
      H    H3875     3.72223   36.46411    3.05233
      O    O3876     7.26583   38.28454    0.70746
      H    H3877     7.78233   37.67328    0.18229
      H    H3878     7.91556   38.78742    1.19856
      O    O3879    10.00538   39.17539    1.53436
      H    H3880    10.29316   38.92082    0.65766
      H    H3881    10.51770   38.62313    2.12492
      O    O3882    11.22308   22.91441    2.11401
      H    H3883    10.44026   23.38896    2.39369
      H    H3884    10.92937   22.00990    2.00533
      O    O3885    15.77518   23.61672    0.15892
      H    H3886    16.21599   23.56123   -0.68892
      H    H3887    15.50594   24.53252    0.22994
      O    O3888    17.63904   23.24825   -1.83020
      H    H3889    17.57788   22.30437   -1.97710
      H    H3890    18.41824   23.35626   -1.28485
      O    O3891     1.94432   39.38748   -2.86780
      H    H3892     1.77652   38.75455   -2.16961
      H    H3893     1.07777   39.59342   -3.21838
      O    O3894     2.56712   23.21916   -5.36462
      H    H3895     3.32505   23.33205   -5.93821
      H    H3896     2.10483   24.05608   -5.41027
      O    O3897     9.10850   25.33309   -2.37439
      H    H3898     8.29595   24.95878   -2.71480
      H    H3899     9.61266   24.57760   -2.07227
      O    O3900    13.61100   21.99733   -1.13608
      H    H3901    14.21393   22.56935   -0.66123
      H    H3902    12.87030   22.56128   -1.35869
      O    O3903    16.75446   22.39949   -5.86205
      H    H3904    16.94952   23.29783   -5.59531
      H    H3905    15.96744   22.16820   -5.36876
      O    O3906     3.55059   38.08081   -5.42279
      H    H3907     3.02535   38.46161   -6.12659
      H    H3908     3.47504   38.70588   -4.70182
      O    O3909     4.93963   23.74557   -6.82442
      H    H3910     5.46891   22.95855   -6.95363
      H    H3911     5.57246   24.42469   -6.59087
      O    O3912     7.13342   23.48308   -3.76988
      H    H3913     6.50369   22.78181   -3.60287
      H    H3914     6.59393   24.24349   -3.98657
      O    O3915    10.07261   40.09700    8.90118
      H    H3916    10.99934   39.86143    8.94478
      H    H3917    10.05765   40.92420    8.41978
      O    O3918    18.30712   39.63956   -4.10140
      H    H3919    18.48234   38.95333   -4.74530
      H    H3920    17.60927   40.16427   -4.49373
      O    O3921     7.25897   22.76148    8.66537
      H    H3922     6.97740   23.26484    7.90145
      H    H3923     7.64094   21.96365    8.29958
      O    O3924     6.14988   40.02904   -6.54786
      H    H3925     6.88176   39.74497   -7.09548
      H    H3926     6.40925   39.79037   -5.65793
      O    O3927     5.31136   36.14552   -6.54323
      H    H3928     4.68225   36.61403   -5.99465
      H    H3929     5.42614   35.30044   -6.10861
      O    O3930    13.86052   22.17684    9.24341
      H    H3931    13.74706   22.49630   10.13857
      H    H3932    14.67749   22.57809    8.94714
      O    O3933    16.64037   39.32399    8.72528
      H    H3934    17.43290   38.82891    8.51788
      H    H3935    16.93368   40.00300    9.33284
      O    O3936    31.54068   30.19608   -1.61876
      H    H3937    31.46009   29.28154   -1.88959
      H    H3938    31.12713   30.69279   -2.32479
      O    O3939    29.67249   31.97399    0.26216
      H    H3940    28.89670   31.49403    0.55202
      H    H3941    30.32378   31.29455    0.08778
      O    O3942    23.68907   32.28597    1.13974
      H    H3943    22.85756   32.03084    1.53939
      H    H3944    24.29717   32.35704    1.87553
      O    O3945    33.69323   36.38000   -0.95792
      H    H3946    33.23138   35.60873   -0.62921
      H    H3947    34.50579   36.40661   -0.45268
      O    O3948    23.66920   36.31998    1.33554
      H    H3949    23.97200   35.42975    1.15656
      H    H3950    24.41356   36.87700    1.10777
      O    O3951    22.09827   27.24616   -5.07602
      H    H3952    21.20994   27.58775   -5.17803
      H    H3953    22.38238   27.04619   -5.96794
      O    O3954    20.06157   29.84672    0.80795
      H    H3955    20.63318   29.07894    0.80831
      H    H3956    20.06172   30.14560   -0.10139
      O    O3957    29.91956   38.66581   -1.33752
      H    H3958    29.30071   39.12156   -1.90808
      H    H3959    30.77474   38.82095   -1.73855
      O    O3960    29.11339   34.64970    0.26918
      H    H3961    29.04421   33.70870    0.10809
      H    H3962    29.87537   34.73985    0.84144
      O    O3963    21.30405   25.25516    2.59484
      H    H3964    21.12434   24.35773    2.87512
      H    H3965    20.90206   25.80234    3.26954
      O    O3966    30.14390   27.45674    0.49607
      H    H3967    30.52039   26.58393    0.38344
      H    H3968    30.04585   27.79261   -0.39488
      O    O3969    24.27440   25.82931   -4.04218
      H    H3970    24.38108   26.72968   -3.73531
      H    H3971    23.36364   25.78110   -4.33272
      O    O3972    33.92632   24.95179   -2.57109
      H    H3973    34.74728   24.46144   -2.52854
      H    H3974    33.95972   25.54155   -1.81791
      O    O3975    21.92272   27.75121    1.20308
      H    H3976    22.60373   28.01504    1.82182
      H    H3977    21.60753   26.91129    1.53688
      O    O3978    26.11518   28.79794    0.29034
      H    H3979    26.62300   29.29604    0.93084
      H    H3980    26.64650   28.02146    0.11427
      O    O3981    38.21627   26.96846    3.99327
      H    H3982    37.51149   27.35663    3.47478
      H    H3983    38.48206   27.66349    4.59536
      O    O3984    24.39879   23.43780    4.55668
      H    H3985    24.40063   23.95504    3.75127
      H    H3986    23.56922   22.96082    4.53367
      O    O3987    30.78590   33.54973   -3.94433
      H    H3988    30.16762   34.01467   -4.50806
      H    H3989    31.29822   34.24248   -3.52738
      O    O3990    25.64907   33.07732    2.73403
      H    H3991    25.31601   33.70421    3.37613
      H    H3992    25.82574   33.60350    1.95419
      O    O3993    34.16246   26.89182    0.20166
      H    H3994    33.45802   27.18031    0.78197
      H    H3995    34.52368   27.70184   -0.15838
      O    O3996    24.08032   25.14879    2.56372
      H    H3997    24.42200   25.99300    2.26911
      H    H3998    23.14190   25.29717    2.68026
      O    O3999    24.86098   35.04540    4.54895
      H    H4000    25.47838   35.72050    4.26739
      H    H4001    24.00029   35.45419    4.45770
      O    O4002    20.15422   34.23538   -6.57037
      H    H4003    19.77701   34.72409   -7.30188
      H    H4004    20.41152   34.90791   -5.93972
      O    O4005    35.77874   36.50934    2.46441
      H    H4006    35.09509   37.17925    2.45608
      H    H4007    36.31817   36.70740    1.69890
      O    O4008    37.23116   26.33730    0.59258
      H    H4009    36.28365   26.37120    0.72413
      H    H4010    37.55615   27.15120    0.97752
      O    O4011    27.76311   22.63702   -1.11182
      H    H4012    28.07061   22.08171   -1.82827
      H    H4013    26.83318   22.77147   -1.29452
      O    O4014    33.31462   38.35375    1.17893
      H    H4015    33.32733   37.94998    0.31115
      H    H4016    32.76214   39.12848    1.07507
      O    O4017    34.60916   35.07537   -3.73206
      H    H4018    34.49879   34.13281   -3.60711
      H    H4019    34.60598   35.43694   -2.84578
      O    O4020    32.71316   33.25673    2.50719
      H    H4021    33.13004   33.04275    1.67253
      H    H4022    33.43714   33.51401    3.07805
      O    O4023    30.15119   30.70190   -4.37581
      H    H4024    29.22411   30.63564   -4.14696
      H    H4025    30.30367   31.63992   -4.49028
      O    O4026    30.13809   26.97360   -7.37909
      H    H4027    29.19846   27.13500   -7.29384
      H    H4028    30.45642   27.69217   -7.92549
      O    O4029    36.65937   31.65546    2.59881
      H    H4030    35.83123   31.72477    2.12383
      H    H4031    37.25442   32.24089    2.13040
      O    O4032    34.18091   32.26393   -3.87228
      H    H4033    33.56216   31.92589   -4.51965
      H    H4034    34.16336   31.61991   -3.16436
      O    O4035    33.62357   28.44239    3.54430
      H    H4036    33.21069   29.26776    3.79830
      H    H4037    32.89117   27.85689    3.35194
      O    O4038    25.75685   31.22838   -1.59383
      H    H4039    25.35255   30.51610   -2.08924
      H    H4040    25.84316   30.88370   -0.70503
      O    O4041    26.22502   34.91513    0.57009
      H    H4042    25.92785   34.30968   -0.10913
      H    H4043    27.17500   34.95287    0.45902
      O    O4044    24.46971   28.00270    2.18607
      H    H4045    25.02117   28.11223    1.41140
      H    H4046    24.98406   28.37646    2.90159
      O    O4047    34.31358   38.48832    4.23240
      H    H4048    33.83664   39.29554    4.03966
      H    H4049    33.62976   37.83615    4.38502
      O    O4050    25.31686   34.65330    7.22087
      H    H4051    24.41972   34.87730    7.46821
      H    H4052    25.34215   34.77680    6.27201
      O    O4053    32.35738   31.50262   -6.86501
      H    H4054    32.79671   30.66486   -7.01122
      H    H4055    33.07023   32.13556   -6.77859
      O    O4056    24.14398   31.52464    5.79660
      H    H4057    24.00476   32.39692    6.16534
      H    H4058    23.26212   31.18192    5.65140
      O    O4059    30.46692   36.44222   -2.89688
      H    H4060    30.90651   37.18466   -3.31134
      H    H4061    30.40561   36.68488   -1.97299
      O    O4062    25.94202   37.46681    8.00512
      H    H4063    25.91356   37.87110    7.13796
      H    H4064    25.77852   36.53784    7.84228
      O    O4065    35.93910   22.75690   -8.55090
      H    H4066    35.62636   22.84958   -7.65100
      H    H4067    36.70035   23.33500   -8.60116
      O    O4068    22.45731   30.12288   -4.09317
      H    H4069    22.33707   30.84909   -4.70504
      H    H4070    22.14740   29.35317   -4.57038
      O    O4071    37.89350   38.24952    9.30154
      H    H4072    38.36947   38.72780    9.98044
      H    H4073    38.51422   38.18126    8.57609
      O    O4074    20.09585   33.29439    1.71370
      H    H4075    20.17389   33.42927    0.76927
      H    H4076    20.71002   32.58598    1.90651
      O    O4077    21.34061   34.99441   -1.87569
      H    H4078    20.93342   35.13587   -2.73033
      H    H4079    22.23191   34.71043   -2.07857
      O    O4080    37.29683   35.44080    6.46154
      H    H4081    37.42313   35.20199    5.54326
      H    H4082    37.33896   34.60925    6.93375
      O    O4083    31.15850   39.14360    5.03102
      H    H4084    31.67297   39.05440    5.83326
      H    H4085    30.31541   39.48957    5.32381
      O    O4086    33.13394   39.42913   -5.54058
      H    H4087    32.97405   39.13943   -4.64240
      H    H4088    32.96861   38.65315   -6.07606
      O    O4089    25.61278   39.20899   -3.76342
      H    H4090    25.43703   38.29254   -3.97664
      H    H4091    24.75835   39.56772   -3.52364
      O    O4092    32.83655   36.93789   -6.98078
      H    H4093    32.14307   36.93562   -7.64055
      H    H4094    33.57884   36.51382   -7.41136
      O    O4095    32.40155   38.56416   -2.90593
      H    H4096    32.85724   37.78310   -2.59207
      H    H4097    32.74080   39.27484   -2.36181
      O    O4098    37.14923   27.49405    7.42651
      H    H4099    36.53365   28.00201    6.89806
      H    H4100    36.82887   26.59388    7.36911
      O    O4101    20.15180   34.33581    4.25314
      H    H4102    20.31491   33.86634    3.43508
      H    H4103    20.61705   33.82816    4.91803
      O    O4104    24.92368   23.46638   -0.71080
      H    H4105    24.48049   24.24734   -1.04235
      H    H4106    25.48218   23.78937   -0.00371
      O    O4107    29.21066   26.33324    4.89273
      H    H4108    28.74860   26.54154    5.70472
      H    H4109    28.80847   25.51917    4.58980
      O    O4110    34.21111   27.55413    6.02240
      H    H4111    33.36047   27.25471    6.34330
      H    H4112    34.05129   27.79833    5.11078
      O    O4113    31.30608   29.05431    8.12228
      H    H4114    31.63142   28.22068    7.78250
      H    H4115    32.09411   29.57716    8.27011
      O    O4116    28.03956   23.08745   -5.83022
      H    H4117    27.41498   23.08344   -5.10489
      H    H4118    27.95257   22.22055   -6.22662
      O    O4119    26.96127   24.01112    1.14816
      H    H4120    27.25850   24.91740    1.06736
      H    H4121    27.50982   23.52299    0.53412
      O    O4122    24.71510   28.58974   -2.98268
      H    H4123    24.48919   28.37346   -2.07801
      H    H4124    23.93435   29.02259   -3.32808
      O    O4125    31.94488   28.59608   -4.38361
      H    H4126    31.34577   29.31966   -4.56725
      H    H4127    32.49284   28.53376   -5.16597
      O    O4128    27.15502   29.48830    7.68335
      H    H4129    27.05938   28.54777    7.53339
      H    H4130    27.99822   29.70981    7.28816
      O    O4131    30.55136   27.23243   -2.35328
      H    H4132    30.94432   27.54965   -3.16641
      H    H4133    30.91305   26.35362   -2.23883
      O    O4134    22.28608   25.89967    5.83673
      H    H4135    21.89241   26.74719    6.04401
      H    H4136    21.59792   25.26230    6.02759
      O    O4137    28.86058   25.98316    8.90640
      H    H4138    28.17041   25.79038    9.54101
      H    H4139    29.60381   26.26663    9.43883
      O    O4140    19.58778   23.82251   -0.13026
      H    H4141    19.29909   24.39280    0.58223
      H    H4142    20.33236   23.34296    0.23286
      O    O4143    31.13688   29.82301    1.74179
      H    H4144    30.40499   30.33169    2.09080
      H    H4145    30.73931   29.00600    1.44067
      O    O4146    27.57462   26.49843    0.14704
      H    H4147    27.57822   26.05742   -0.70250
      H    H4148    28.46973   26.82016    0.25423
      O    O4149    23.42485   26.38108   -0.89354
      H    H4150    23.08486   26.85860   -0.13683
      H    H4151    22.66259   25.92759   -1.25343
      O    O4152    27.63663   27.49963   -6.86228
      H    H4153    27.75791   27.45828   -5.91370
      H    H4154    27.25148   28.36205   -7.01761
      O    O4155    31.59947   25.27637    1.15409
      H    H4156    31.61674   25.72724    1.99827
      H    H4157    31.35103   24.37694    1.36743
      O    O4158    26.64878   29.80975   -7.46395
      H    H4159    26.08047   29.36157   -8.09036
      H    H4160    27.35768   30.16903   -7.99744
      O    O4161    35.02654   22.68959    6.99273
      H    H4162    35.35112   21.95856    7.51852
      H    H4163    35.06219   22.37096    6.09083
      O    O4164    21.72570   33.71095    6.41272
      H    H4165    21.34118   33.07032    7.01102
      H    H4166    22.03692   34.41456    6.98220
      O    O4167    27.87541   30.55860    1.89358
      H    H4168    28.24243   30.08446    2.63972
      H    H4169    27.68592   31.43276    2.23442
      O    O4170    20.73946   25.30297   -1.97707
      H    H4171    20.45415   24.93854   -1.13921
      H    H4172    20.67735   24.57102   -2.59075
      O    O4173    25.66535   29.59947    4.21201
      H    H4174    25.36106   30.47867    4.43704
      H    H4175    26.62000   29.65945    4.24775
      O    O4176    24.19353   33.80557   -5.19131
      H    H4177    23.41976   33.26533   -5.35144
      H    H4178    24.92299   33.28623   -5.52953
      O    O4179    34.95233   32.80210    0.60133
      H    H4180    35.67224   33.29763    0.21094
      H    H4181    34.75051   32.12389   -0.04328
      O    O4182    30.41332   24.19590   -5.25573
      H    H4183    29.59978   23.69722   -5.33120
      H    H4184    30.21952   25.03572   -5.67210
      O    O4185    30.33421   32.87301    6.48823
      H    H4186    30.26794   31.95258    6.23399
      H    H4187    29.70472   32.97055    7.20269
      O    O4188    33.12816   28.56786   -6.95952
      H    H4189    34.01612   28.87959   -7.13438
      H    H4190    33.09867   27.69509   -7.35146
      O    O4191    24.23727   33.47361   -1.55343
      H    H4192    24.75514   32.67043   -1.60774
      H    H4193    23.78567   33.41152   -0.71175
      O    O4194    29.12422   34.74023   -6.28070
      H    H4195    29.46579   35.48446   -6.77637
      H    H4196    28.29549   35.05335   -5.91822
      O    O4197    21.72172   30.43974    5.35914
      H    H4198    21.36322   31.10513    5.94648
      H    H4199    21.42718   29.60810    5.73040
      O    O4200    24.92304   30.89817    8.24310
      H    H4201    24.62305   31.04388    7.34588
      H    H4202    25.69416   30.33870    8.15044
      O    O4203    30.26588   35.69507    6.23861
      H    H4204    30.28033   34.76316    6.02050
      H    H4205    29.55839   35.78104    6.87759
      O    O4206    35.39959   29.87905   -7.49153
      H    H4207    35.31596   30.31047   -8.34189
      H    H4208    36.11901   30.33888   -7.05885
      O    O4209    36.47700   32.33580    5.58547
      H    H4210    35.75182   32.92868    5.38841
      H    H4211    37.00455   32.32815    4.78680
      O    O4212    36.42831   36.73327   -4.76332
      H    H4213    35.78593   36.07884   -4.48894
      H    H4214    36.04138   37.13878   -5.53925
      O    O4215    32.00696   34.06182   -0.91615
      H    H4216    32.35934   33.46463   -1.57601
      H    H4217    31.12319   33.73624   -0.74532
      O    O4218    28.09329   34.82159   -3.50911
      H    H4219    28.78040   35.36851   -3.12835
      H    H4220    27.30653   35.36566   -3.47415
      O    O4221    20.23253   30.43887   -8.01740
      H    H4222    21.10201   30.72135   -7.73381
      H    H4223    19.74156   31.25246   -8.13252
      O    O4224    27.39601   31.82619   -3.89657
      H    H4225    27.85229   32.63671   -3.67055
      H    H4226    27.04483   31.50850   -3.06472
      O    O4227    29.69927   37.33682    3.33266
      H    H4228    30.34349   37.54276    4.01000
      H    H4229    30.06221   36.57566    2.87974
      O    O4230    23.29719   22.16995   -3.42432
      H    H4231    23.16865   22.16174   -2.47583
      H    H4232    22.47339   22.50826   -3.77522
      O    O4233    30.97248   35.34006    2.05040
      H    H4234    31.61470   34.63937    2.16362
      H    H4235    31.49741   36.11990    1.87009
      O    O4236    34.81805   35.62492   -8.22568
      H    H4237    34.59181   34.90796   -7.63322
      H    H4238    34.42767   35.37616   -9.06351
      O    O4239    32.74624   36.13955    5.25401
      H    H4240    33.08186   36.72622    5.93180
      H    H4241    31.82627   36.00882    5.48379
      O    O4242    20.59965   39.65161   -7.45124
      H    H4243    20.95942   40.25054   -8.10551
      H    H4244    20.45889   40.19760   -6.67773
      O    O4245    20.29658   23.92907    6.03635
      H    H4246    19.58243   24.12876    6.64161
      H    H4247    20.71608   23.15302    6.40783
      O    O4248    34.39968   33.54211   -6.56427
      H    H4249    34.11185   34.00338   -5.77648
      H    H4250    35.19489   33.08189   -6.29584
      O    O4251    20.58384   37.91709    7.02300
      H    H4252    20.69295   36.97657    6.88254
      H    H4253    19.93190   38.18257    6.37438
      O    O4254    28.57510   36.18868    8.42282
      H    H4255    28.25479   35.46961    8.96739
      H    H4256    27.90093   36.86419    8.49642
      O    O4257    26.61652   37.03473   -6.63387
      H    H4258    26.60753   37.76770   -7.24942
      H    H4259    25.69635   36.78788   -6.54117
      O    O4260    22.21718   32.25622   -5.88919
      H    H4261    21.60997   32.99611   -5.87966
      H    H4262    22.69211   32.34615   -6.71537
      O    O4263    31.79046   26.42130    3.78650
      H    H4264    32.15854   25.60082    4.11445
      H    H4265    30.93028   26.48149    4.20206
      O    O4266    35.15666   25.37699   -5.40475
      H    H4267    34.52798   25.48156   -6.11892
      H    H4268    34.66185   25.59667   -4.61536
      O    O4269    29.60248   37.09755   -7.97135
      H    H4270    29.70367   36.89395   -8.90115
      H    H4271    28.70265   36.84338   -7.76657
      O    O4272    27.12506   27.65559   -3.98896
      H    H4273    26.41668   28.12422   -3.54760
      H    H4274    27.40951   26.99779   -3.35444
      O    O4275    28.75066   29.07526    4.01029
      H    H4276    29.24918   29.54984    4.67548
      H    H4277    28.89295   28.15161    4.21730
      O    O4278    31.15661   24.38065   -2.54938
      H    H4279    31.03339   24.39927   -3.49843
      H    H4280    32.10506   24.42855   -2.42954
      O    O4281    28.24429   39.61618   -3.27658
      H    H4282    28.49844   39.57832   -4.19865
      H    H4283    27.29553   39.48952   -3.28376
      O    O4284    25.32857   25.96409   -6.61389
      H    H4285    26.17762   26.40111   -6.67987
      H    H4286    24.96169   26.27612   -5.78668
      O    O4287    35.95734   25.29205    4.85313
      H    H4288    35.45470   26.03259    5.19251
      H    H4289    36.77301   25.68045    4.53681
      O    O4290    34.24954   30.53537   -1.70073
      H    H4291    33.30856   30.55039   -1.52596
      H    H4292    34.56395   29.74897   -1.25470
      O    O4293    24.22771   32.21733   -8.14034
      H    H4294    24.99404   32.10547   -7.57779
      H    H4295    24.30518   31.52113   -8.79266
      O    O4296    22.92238   29.64984   -7.45705
      H    H4297    23.00274   28.70259   -7.34531
      H    H4298    23.81436   29.98053   -7.35098
      O    O4299    36.25210   37.70626   -0.02531
      H    H4300    36.37684   38.52937    0.44708
      H    H4301    37.11866   37.49533   -0.37289
      O    O4302    23.72386   39.79938   -0.35359
      H    H4303    24.46010   39.25092   -0.08274
      H    H4304    24.10795   40.66498   -0.49299
      O    O4305    20.60840   35.86673   -4.47944
      H    H4306    19.68238   36.10885   -4.48890
      H    H4307    21.07405   36.69416   -4.60097
      O    O4308    22.72968   38.98398    8.83497
      H    H4309    23.53096   39.30519    9.24851
      H    H4310    22.21487   38.62354    9.55696
      O    O4311    26.83409   38.97241   -8.53104
      H    H4312    27.62695   39.26129   -8.98286
      H    H4313    26.31452   38.54162   -9.20979
      O    O4314    31.56615   35.09197    8.78251
      H    H4315    30.95996   35.11513    8.04208
      H    H4316    31.26156   34.36027    9.31923
      O    O4317    32.99618   38.82000    7.39345
      H    H4318    33.94836   38.73580    7.34347
      H    H4319    32.84901   39.48417    8.06683
      O    O4320    35.88710   38.19942   -7.10736
      H    H4321    35.60125   37.78593   -7.92194
      H    H4322    35.68906   39.12819   -7.22731
      O    O4323    20.44946   31.47133    7.77857
      H    H4324    20.95337   30.89206    8.35019
      H    H4325    19.71021   31.75535    8.31621
      O    O4326    27.35183   34.19275   -8.66680
      H    H4327    27.24689   33.57798   -7.94066
      H    H4328    27.18425   33.66934   -9.45050
      O    O4329    27.50326   32.87843    7.31212
      H    H4330    26.73783   33.44693    7.22759
      H    H4331    27.68485   32.58605    6.41895
      O    O4332    30.59210   33.25475   -8.06260
      H    H4333    30.04311   33.70168   -7.41833
      H    H4334    31.21403   32.74968   -7.53883
      O    O4335    34.64559   34.60896    7.86962
      H    H4336    35.38654   34.94654    7.36637
      H    H4337    33.88286   34.77817    7.31660
      O    O4338    22.48177   29.61429    8.67358
      H    H4339    22.52231   29.31568    9.58210
      H    H4340    23.33632   30.01505    8.51433
      O    O4341    26.25961   32.21384   -6.16607
      H    H4342    26.68125   32.04783   -5.32293
      H    H4343    26.38470   31.40387   -6.66056
      O    O4344    24.42235   28.19350    6.64103
      H    H4345    23.89200   27.70259    6.01336
      H    H4346    25.09116   28.62192    6.10682
      O    O4347    28.77238   31.23760   -8.91836
      H    H4348    29.29294   30.52251   -9.28425
      H    H4349    29.41922   31.87619   -8.61831
      O    O4350    33.32016   32.66044    6.40515
      H    H4351    33.73426   32.81495    7.25419
      H    H4352    32.38526   32.78597    6.56772
      O    O4353    33.79238   30.00006    8.40906
      H    H4354    34.37445   29.24529    8.32111
      H    H4355    33.96855   30.53080    7.63221
      O    O4356    24.90958   25.15974    6.72076
      H    H4357    24.81527   24.54181    5.99584
      H    H4358    24.32932   25.88636    6.49375
      O    O4359    27.67573   23.71706    3.75349
      H    H4360    27.22746   23.73949    2.90805
      H    H4361    27.04225   23.31896    4.35052
      O    O4362    28.08168   32.61249    4.37474
      H    H4363    28.50049   33.45577    4.20236
      H    H4364    27.16255   32.74970    4.14542
      O    O4365    30.41807   30.34411    5.75852
      H    H4366    30.53769   29.74822    6.49801
      H    H4367    31.27747   30.38108    5.33865
      O    O4368    32.75686   30.89783    4.33477
      H    H4369    32.23038   31.42209    3.73129
      H    H4370    33.10000   31.53057    4.96575
      O    O4371    25.93242   38.91779    5.49051
      H    H4372    25.39453   39.64240    5.17138
      H    H4373    26.18582   38.44083    4.70025
      O    O4374    27.18495   26.88625    7.01610
      H    H4375    27.77492   26.57783    7.70389
      H    H4376    26.36697   26.41422    7.17209
      O    O4377    32.00429   26.50283    7.24941
      H    H4378    31.31584   25.84098    7.18441
      H    H4379    32.72489   26.05665    7.69425
      O    O4380    32.63433   23.09799   -6.69157
      H    H4381    32.91456   22.25478   -6.33563
      H    H4382    31.86091   23.33030   -6.17769
      O    O4383    28.78865   40.15291    5.74918
      H    H4384    28.71452   41.05643    6.05641
      H    H4385    27.88653   39.83410    5.72138
      O    O4386    27.17227   24.33069   -8.24685
      H    H4387    26.82447   23.65309   -8.82660
      H    H4388    27.37355   23.86964   -7.43251
      O    O4389    29.33718   39.31877   -6.62819
      H    H4390    30.23226   39.65726   -6.60631
      H    H4391    29.36894   38.59671   -7.25576
      O    O4392    22.97679   34.69147   -8.39949
      H    H4393    23.41428   35.23444   -7.74373
      H    H4394    23.46157   33.86617   -8.38985
      O    O4395    20.19137   37.48037   -0.94746
      H    H4396    20.52168   36.61248   -1.17960
      H    H4397    20.62047   37.68623   -0.11697
      O    O4398    24.78757   35.81127   -3.28726
      H    H4399    24.48712   35.68777   -2.38687
      H    H4400    24.68132   34.95213   -3.69569
      O    O4401    20.68040   38.34743    1.79070
      H    H4402    20.24349   38.52751    2.62312
      H    H4403    21.24816   39.10489    1.64887
      O    O4404    36.31661   37.84913    6.07843
      H    H4405    35.71681   37.90839    5.33482
      H    H4406    36.44600   36.90963    6.20812
      O    O4407    37.55676   35.59091   -8.58460
      H    H4408    36.72605   35.65858   -8.11387
      H    H4409    37.73394   36.48133   -8.88791
      O    O4410    37.01240   32.33566   -6.08118
      H    H4411    37.77430   32.90533   -5.97521
      H    H4412    37.02784   31.76838   -5.31035
      O    O4413    20.51284   30.85946   -1.85041
      H    H4414    19.85772   30.59062   -2.49444
      H    H4415    21.35063   30.74990   -2.30021
      O    O4416    38.01840   33.19067   -1.23698
      H    H4417    38.38928   32.40740   -1.64339
      H    H4418    38.65859   33.87958   -1.41525
      O    O4419    35.00178   34.57433    4.17605
      H    H4420    34.18776   35.00405    4.43863
      H    H4421    35.40920   35.18617    3.56295
      O    O4422    37.06432   32.62910   -8.92392
      H    H4423    37.33921   33.53699   -9.05200
      H    H4424    36.87540   32.56535   -7.98773
      O    O4425    33.46188   25.65358   -7.62856
      H    H4426    33.88037   25.46668   -8.46890
      H    H4427    33.15549   24.80149   -7.31827
      O    O4428    36.96086   30.56600   -3.93098
      H    H4429    36.58522   29.79879   -4.36285
      H    H4430    36.23117   30.94827   -3.44349
      O    O4431    21.55043   31.24471    2.68992
      H    H4432    21.91774   31.15745    3.56953
      H    H4433    20.98151   30.48137    2.59061
      O    O4434    36.35082   29.71315    5.70297
      H    H4435    36.11943   29.48443    4.80277
      H    H4436    36.61127   30.63311    5.65746
      O    O4437    21.10203   28.15562    6.59577
      H    H4438    20.20764   28.12230    6.93514
      H    H4439    21.64179   28.35430    7.36089
      O    O4440    34.78962   24.93879    8.48094
      H    H4441    35.66664   24.94713    8.86434
      H    H4442    34.80171   24.20188    7.87018
      O    O4443    19.72665   28.06935   -5.90788
      H    H4444    18.82305   28.33237   -6.08271
      H    H4445    20.21071   28.34047   -6.68788
      O    O4446    36.23595   28.79175   -0.63026
      H    H4447    36.75970   28.29801   -1.26124
      H    H4448    36.82189   28.92678    0.11450
      O    O4449    36.41492   28.87573    2.89170
      H    H4450    35.46519   28.84209    3.00620
      H    H4451    36.59622   29.78575    2.65667
      O    O4452    22.26937   27.12590   -7.99844
      H    H4453    22.97854   26.70422   -8.48371
      H    H4454    21.55336   27.19343   -8.63010
      O    O4455    35.72595   28.04908   -4.69102
      H    H4456    36.22186   27.81617   -3.90613
      H    H4457    35.52756   27.21027   -5.10725
      O    O4458    21.60600   22.43045    0.94409
      H    H4459    22.25362   21.88019    0.50360
      H    H4460    22.02619   22.68477    1.76567
      O    O4461    37.15466   26.68518   -2.15725
      H    H4462    37.04459   26.53078   -1.21902
      H    H4463    37.91542   26.15727   -2.39971
      O    O4464    35.50124   22.62459    4.30105
      H    H4465    36.13846   23.23800    4.66697
      H    H4466    35.64873   22.66066    3.35597
      O    O4467    38.04369   24.51597   -8.91663
      H    H4468    38.96862   24.38409   -9.12481
      H    H4469    38.02127   24.59525   -7.96299
      O    O4470    38.11754   25.28704   -6.29096
      H    H4471    37.32269   25.22155   -5.76167
      H    H4472    38.32187   26.22210   -6.30243
      O    O4473    35.05938   39.32619   -2.29712
      H    H4474    35.65529   39.00465   -2.97368
      H    H4475    35.31720   38.85337   -1.50580
      O    O4476    21.35920   22.58602    3.68662
      H    H4477    21.01068   23.04240    4.45244
      H    H4478    21.02797   21.69173    3.76886
      O    O4479    22.96564   35.75798    7.85194
      H    H4480    22.92260   35.38727    8.73338
      H    H4481    23.09674   36.69574    7.99212
      O    O4482    26.66624   37.31394    3.45291
      H    H4483    26.42538   37.58140    2.56596
      H    H4484    27.60651   37.48451    3.50800
      O    O4485    28.87168   23.77721    7.20856
      H    H4486    28.81057   24.36939    7.95810
      H    H4487    29.81172   23.66981    7.06359
      O    O4488    31.50914   23.43422    6.84779
      H    H4489    32.12318   23.75214    6.18590
      H    H4490    32.05410   22.94907    7.46738
      O    O4491    37.92666   39.33338    4.25397
      H    H4492    37.43249   39.73027    3.53669
      H    H4493    37.31799   38.70830    4.64770
      O    O4494    22.03127   22.11364    6.96170
      H    H4495    22.57957   21.93245    6.19831
      H    H4496    22.09680   21.32305    7.49733
      O    O4497    22.80444   38.70421    4.97172
      H    H4498    22.21047   38.57268    5.71072
      H    H4499    22.79683   37.86802    4.50593
      O    O4500    32.24994   21.99743    3.17472
      H    H4501    31.37593   22.33094    2.97201
      H    H4502    32.14102   21.52475    3.99991
      O    O4503    33.15714   24.20452    4.55889
      H    H4504    32.82848   23.38969    4.17906
      H    H4505    34.10537   24.16150    4.43546
      O    O4506    35.61060   39.97572    1.53265
      H    H4507    35.15090   40.72730    1.15845
      H    H4508    34.98185   39.25637    1.47413
      O    O4509    22.43567   36.07004    3.92252
      H    H4510    21.70907   35.45057    3.85512
      H    H4511    22.49658   36.46411    3.05233
      O    O4512    26.04018   38.28454    0.70746
      H    H4513    26.55668   37.67328    0.18229
      H    H4514    26.68991   38.78742    1.19856
      O    O4515    28.77973   39.17539    1.53436
      H    H4516    29.06751   38.92082    0.65766
      H    H4517    29.29205   38.62313    2.12492
      O    O4518    29.99743   22.91441    2.11401
      H    H4519    29.21461   23.38896    2.39369
      H    H4520    29.70372   22.00990    2.00533
      O    O4521    34.54953   23.61672    0.15892
      H    H4522    34.99034   23.56123   -0.68892
      H    H4523    34.28029   24.53252    0.22994
      O    O4524    36.41339   23.24825   -1.83020
      H    H4525    36.35223   22.30437   -1.97710
      H    H4526    37.19259   23.35626   -1.28485
      O    O4527    20.71867   39.38748   -2.86780
      H    H4528    20.55087   38.75455   -2.16961
      H    H4529    19.85212   39.59342   -3.21838
      O    O4530    21.34147   23.21916   -5.36462
      H    H4531    22.09940   23.33205   -5.93821
      H    H4532    20.87918   24.05608   -5.41027
      O    O4533    27.88285   25.33309   -2.37439
      H    H4534    27.07030   24.95878   -2.71480
      H    H4535    28.38701   24.57760   -2.07227
      O    O4536    32.38535   21.99733   -1.13608
      H    H4537    32.98828   22.56935   -0.66123
      H    H4538    31.64465   22.56128   -1.35869
      O    O4539    35.52881   22.39949   -5.86205
      H    H4540    35.72387   23.29783   -5.59531
      H    H4541    34.74179   22.16820   -5.36876
      O    O4542    22.32494   38.08081   -5.42279
      H    H4543    21.79970   38.46161   -6.12659
      H    H4544    22.24939   38.70588   -4.70182
      O    O4545    23.71398   23.74557   -6.82442
      H    H4546    24.24326   22.95855   -6.95363
      H    H4547    24.34681   24.42469   -6.59087
      O    O4548    25.90777   23.48308   -3.76988
      H    H4549    25.27804   22.78181   -3.60287
      H    H4550    25.36828   24.24349   -3.98657
      O    O4551    28.84696   40.09700    8.90118
      H    H4552    29.77369   39.86143    8.94478
      H    H4553    28.83200   40.92420    8.41978
      O    O4554    37.08147   39.63956   -4.10140
      H    H4555    37.25669   38.95333   -4.74530
      H    H4556    36.38362   40.16427   -4.49373
      O    O4557    26.03332   22.76148    8.66537
      H    H4558    25.75175   23.26484    7.90145
      H    H4559    26.41529   21.96365    8.29958
      O    O4560    24.92423   40.02904   -6.54786
      H    H4561    25.65611   39.74497   -7.09548
      H    H4562    25.18360   39.79037   -5.65793
      O    O4563    24.08571   36.14552   -6.54323
      H    H4564    23.45660   36.61403   -5.99465
      H    H4565    24.20049   35.30044   -6.10861
      O    O4566    32.63487   22.17684    9.24341
      H    H4567    32.52141   22.49630   10.13857
      H    H4568    33.45184   22.57809    8.94714
      O    O4569    35.41472   39.32399    8.72528
      H    H4570    36.20725   38.82891    8.51788
      H    H4571    35.70803   40.00300    9.33284
      O    O4572    -6.00802   -7.35262   17.15559
      H    H4573    -6.08861   -8.26716   16.88476
      H    H4574    -6.42157   -6.85591   16.44956
      O    O4575    -7.87621   -5.57471   19.03651
      H    H4576    -8.65200   -6.05467   19.32637
      H    H4577    -7.22492   -6.25415   18.86213
      O    O4578    -3.85547   -1.16870   17.81643
      H    H4579    -4.31732   -1.93997   18.14514
      H    H4580    -3.04291   -1.14209   18.32167
      O    O4581    -7.62914    1.11711   17.43683
      H    H4582    -8.24799    1.57286   16.86627
      H    H4583    -6.77396    1.27225   17.03580
      O    O4584    -8.43531   -2.89900   19.04353
      H    H4585    -8.50449   -3.84000   18.88244
      H    H4586    -7.67333   -2.80885   19.61579
      O    O4587    -6.76280   -3.99897   14.83002
      H    H4588    -7.38108   -3.53403   14.26629
      H    H4589    -6.25048   -3.30622   15.24697
      O    O4590    -1.76996   -1.03936   21.23876
      H    H4591    -2.45361   -0.36945   21.23043
      H    H4592    -1.23053   -0.84130   20.47325
      O    O4593    -4.23408    0.80505   19.95328
      H    H4594    -4.22137    0.40128   19.08550
      H    H4595    -4.78656    1.57978   19.84942
      O    O4596    -2.93954   -2.47333   15.04229
      H    H4597    -3.04991   -3.41589   15.16724
      H    H4598    -2.94272   -2.11176   15.92857
      O    O4599    -4.83554   -4.29197   21.28154
      H    H4600    -4.41866   -4.50595   20.44688
      H    H4601    -4.11156   -4.03469   21.85240
      O    O4602    -7.39751   -6.84680   14.39854
      H    H4603    -8.32459   -6.91306   14.62739
      H    H4604    -7.24503   -5.90878   14.28407
      O    O4605    -0.88933   -5.89324   21.37316
      H    H4606    -1.71747   -5.82393   20.89818
      H    H4607    -0.29428   -5.30781   20.90475
      O    O4608    -3.36779   -5.28477   14.90207
      H    H4609    -3.98654   -5.62281   14.25470
      H    H4610    -3.38534   -5.92879   15.60999
      O    O4611    -3.92513   -9.10631   22.31865
      H    H4612    -4.33801   -8.28094   22.57265
      H    H4613    -4.65753   -9.69181   22.12629
      O    O4614    -3.23512    0.93962   23.00675
      H    H4615    -3.71206    1.74684   22.81401
      H    H4616    -3.91894    0.28745   23.15937
      O    O4617    -5.19132   -6.04608   11.90934
      H    H4618    -4.75199   -6.88384   11.76313
      H    H4619    -4.47847   -5.41314   11.99576
      O    O4620    -7.08178   -1.10648   15.87747
      H    H4621    -6.64219   -0.36404   15.46301
      H    H4622    -7.14309   -0.86382   16.80136
      O    O4623     0.34480    0.70082   28.07589
      H    H4624     0.82077    1.17910   28.75479
      H    H4625     0.96552    0.63256   27.35044
      O    O4626    -0.25187   -2.10790   25.23589
      H    H4627    -0.12557   -2.34671   24.31761
      H    H4628    -0.20974   -2.93945   25.70810
      O    O4629    -6.39020    1.59490   23.80537
      H    H4630    -5.87573    1.50570   24.60761
      H    H4631    -7.23329    1.94087   24.09816
      O    O4632    -4.41476    1.88043   13.23377
      H    H4633    -4.57465    1.59073   14.13195
      H    H4634    -4.58009    1.10445   12.69829
      O    O4635    -4.71215   -0.61081   11.79357
      H    H4636    -5.40563   -0.61308   11.13380
      H    H4637    -3.96986   -1.03488   11.36299
      O    O4638    -5.14715    1.01546   15.86842
      H    H4639    -4.69146    0.23440   16.18228
      H    H4640    -4.80790    1.72614   16.41254
      O    O4641    -6.24262   -8.49439   26.89663
      H    H4642    -5.91728   -9.32802   26.55685
      H    H4643    -5.45459   -7.97154   27.04446
      O    O4644    -5.60382   -8.95262   14.39074
      H    H4645    -6.20293   -8.22904   14.20710
      H    H4646    -5.05586   -9.01494   13.60838
      O    O4647    -6.41182   -7.72569   20.51614
      H    H4648    -7.14371   -7.21701   20.86515
      H    H4649    -6.80939   -8.54270   20.21502
      O    O4650    -2.59637   -4.74660   19.37568
      H    H4651    -1.87646   -4.25107   18.98529
      H    H4652    -2.79819   -5.42481   18.73107
      O    O4653    -7.21449   -4.67569   25.26258
      H    H4654    -7.28076   -5.59612   25.00834
      H    H4655    -7.84398   -4.57815   25.97704
      O    O4656    -4.42054   -8.98084   11.81483
      H    H4657    -3.53258   -8.66911   11.63997
      H    H4658    -4.45003   -9.85361   11.42289
      O    O4659    -8.42448   -2.80847   12.49365
      H    H4660    -8.08291   -2.06424   11.99798
      H    H4661    -9.25321   -2.49535   12.85613
      O    O4662    -7.28282   -1.85363   25.01296
      H    H4663    -7.26837   -2.78554   24.79485
      H    H4664    -7.99031   -1.76766   25.65194
      O    O4665    -2.14911   -7.66965   11.28282
      H    H4666    -2.23274   -7.23823   10.43246
      H    H4667    -1.42969   -7.20982   11.71550
      O    O4668    -1.07170   -5.21290   24.35982
      H    H4669    -1.79688   -4.62002   24.16276
      H    H4670    -0.54415   -5.22055   23.56115
      O    O4671    -1.12039   -0.81543   14.01103
      H    H4672    -1.76277   -1.46986   14.28541
      H    H4673    -1.50732   -0.40992   13.23510
      O    O4674    -5.54174   -3.48688   17.85820
      H    H4675    -5.18936   -4.08407   17.19834
      H    H4676    -6.42551   -3.81246   18.02903
      O    O4677    -7.84943   -0.21188   22.10701
      H    H4678    -7.20521   -0.00594   22.78435
      H    H4679    -7.48649   -0.97304   21.65409
      O    O4680    -6.57622   -2.20864   20.82475
      H    H4681    -5.93400   -2.90933   20.93797
      H    H4682    -6.05129   -1.42880   20.64444
      O    O4683    -2.73065   -1.92378   10.54867
      H    H4684    -2.95689   -2.64074   11.14113
      H    H4685    -3.12103   -2.17254    9.71084
      O    O4686    -4.80246   -1.40915   24.02836
      H    H4687    -4.46684   -0.82248   24.70615
      H    H4688    -5.72243   -1.53988   24.25814
      O    O4689    -3.14902   -4.00659   12.21008
      H    H4690    -3.43685   -3.54532   12.99787
      H    H4691    -2.35381   -4.46681   12.47851
      O    O4692    -7.94622   -0.45115   10.80300
      H    H4693    -7.84503   -0.65475    9.87320
      H    H4694    -8.84605   -0.70532   11.00778
      O    O4695    -8.79804   -8.47344   22.78464
      H    H4696    -8.29952   -7.99886   23.44983
      H    H4697    -8.65575   -9.39709   22.99165
      O    O4698    -3.29916   -7.01333   17.07362
      H    H4699    -4.24014   -6.99831   17.24839
      H    H4700    -2.98475   -7.79973   17.51965
      O    O4701    -1.29660    0.15756   18.74904
      H    H4702    -1.17186    0.98067   19.22143
      H    H4703    -0.43004   -0.05337   18.40146
      O    O4704    -5.98255   -2.45673   27.55686
      H    H4705    -6.58874   -2.43357   26.81643
      H    H4706    -6.28714   -3.18843   28.09358
      O    O4707    -4.55252    1.27130   26.16780
      H    H4708    -3.60034    1.18710   26.11782
      H    H4709    -4.69969    1.93547   26.84118
      O    O4710    -1.66160    0.65072   11.66699
      H    H4711    -1.94745    0.23723   10.85241
      H    H4712    -1.85964    1.57949   11.54704
      O    O4713    -6.95660   -4.29395   10.71175
      H    H4714    -7.50559   -3.84702   11.35602
      H    H4715    -6.33467   -4.79902   11.23552
      O    O4716    -2.90311   -2.93974   26.64397
      H    H4717    -2.16216   -2.60216   26.14072
      H    H4718    -3.66584   -2.77053   26.09095
      O    O4719    -8.77632   -6.31110    9.85599
      H    H4720    -8.25576   -7.02619    9.49010
      H    H4721    -8.12948   -5.67251   10.15604
      O    O4722    -4.22854   -4.88826   25.17950
      H    H4723    -3.81444   -4.73375   26.02854
      H    H4724    -5.16344   -4.76273   25.34207
      O    O4725    -3.75632   -7.54864   27.18341
      H    H4726    -3.17425   -8.30341   27.09546
      H    H4727    -3.58015   -7.01790   26.40656
      O    O4728    -7.13063   -7.20459   24.53287
      H    H4729    -7.01101   -7.80048   25.27236
      H    H4730    -6.27123   -7.16762   24.11300
      O    O4731    -4.79184   -6.65087   23.10912
      H    H4732    -5.31832   -6.12661   22.50564
      H    H4733    -4.44870   -6.01813   23.74010
      O    O4734    -8.76005    2.60421   24.52353
      H    H4735    -8.83418    3.50773   24.83076
      H    H4736    -9.66217    2.28540   24.49573
      O    O4737    -8.21152    1.77007   12.14616
      H    H4738    -7.31644    2.10856   12.16804
      H    H4739    -8.17976    1.04801   11.51859
      O    O4740    -1.23209    0.30043   24.85278
      H    H4741    -1.83189    0.35969   24.10917
      H    H4742    -1.10270   -0.63907   24.98247
      O    O4743     0.00806   -1.95779   10.18975
      H    H4744    -0.82265   -1.89012   10.66048
      H    H4745     0.18524   -1.06737    9.88644
      O    O4746    -0.53630   -5.21304   12.69317
      H    H4747     0.22560   -4.64337   12.79914
      H    H4748    -0.52086   -5.78032   13.46400
      O    O4749     0.46970   -4.35803   17.53737
      H    H4750     0.84058   -5.14130   17.13096
      H    H4751     1.10989   -3.66912   17.35910
      O    O4752    -2.54692   -2.97437   22.95040
      H    H4753    -3.36094   -2.54465   23.21298
      H    H4754    -2.13950   -2.36253   22.33730
      O    O4755    -0.48438   -4.91960    9.85043
      H    H4756    -0.20949   -4.01171    9.72235
      H    H4757    -0.67330   -4.98335   10.78662
      O    O4758    -0.58784   -6.98270   14.84337
      H    H4759    -0.96348   -7.74991   14.41150
      H    H4760    -1.31753   -6.60043   15.33086
      O    O4761    -1.19788   -7.83555   24.47732
      H    H4762    -1.42927   -8.06427   23.57712
      H    H4763    -0.93743   -6.91559   24.43181
      O    O4764    -1.31275   -8.75695   18.14409
      H    H4765    -0.78900   -9.25069   17.51311
      H    H4766    -0.72681   -8.62192   18.88885
      O    O4767    -1.13378   -8.67297   21.66605
      H    H4768    -2.08351   -8.70661   21.78055
      H    H4769    -0.95248   -7.76295   21.43102
      O    O4770    -2.48932    1.77749   16.47723
      H    H4771    -1.89341    1.45595   15.80067
      H    H4772    -2.23150    1.30467   17.26855
      O    O4773     0.37796    1.78468   23.02832
      H    H4774    -0.11621    2.18157   22.31104
      H    H4775    -0.23071    1.15960   23.42205
      O    O4776    -1.93810    2.42702   20.30700
      H    H4777    -2.39780    3.17860   19.93280
      H    H4778    -2.56685    1.70767   20.24848
      O    O4779    -8.76897    1.62669   20.30871
      H    H4780    -8.48119    1.37212   19.43201
      H    H4781    -8.25665    1.07443   20.89927
      O    O4782    -8.70174    2.54830   27.67553
      H    H4783    -7.77501    2.31273   27.71913
      H    H4784    -8.71670    3.37550   27.19413
      O    O4785    -0.46723    2.09086   14.67295
      H    H4786    -0.29201    1.40463   14.02905
      H    H4787    -1.16508    2.61557   14.28062
      O    O4788    -2.13398    1.77529   27.49963
      H    H4789    -1.34145    1.28021   27.29223
      H    H4790    -1.84067    2.45430   28.10719
      O    O4791    12.76633   -7.35262   17.15559
      H    H4792    12.68574   -8.26716   16.88476
      H    H4793    12.35278   -6.85591   16.44956
      O    O4794    10.89814   -5.57471   19.03651
      H    H4795    10.12235   -6.05467   19.32637
      H    H4796    11.54943   -6.25415   18.86213
      O    O4797     4.91472   -5.26273   19.91409
      H    H4798     4.08321   -5.51786   20.31374
      H    H4799     5.52282   -5.19166   20.64988
      O    O4800    14.91888   -1.16870   17.81643
      H    H4801    14.45703   -1.93997   18.14514
      H    H4802    15.73144   -1.14209   18.32167
      O    O4803     4.89485   -1.22872   20.10989
      H    H4804     5.19765   -2.11895   19.93091
      H    H4805     5.63921   -0.67170   19.88212
      O    O4806     1.28722   -7.70198   19.58230
      H    H4807     1.85883   -8.46976   19.58266
      H    H4808     1.28737   -7.40310   18.67296
      O    O4809    11.14521    1.11711   17.43683
      H    H4810    10.52636    1.57286   16.86627
      H    H4811    12.00039    1.27225   17.03580
      O    O4812    10.33904   -2.89900   19.04353
      H    H4813    10.26986   -3.84000   18.88244
      H    H4814    11.10102   -2.80885   19.61579
      O    O4815     7.34083   -8.75076   19.06469
      H    H4816     7.84865   -8.25266   19.70519
      H    H4817     7.87215   -9.52724   18.88862
      O    O4818    12.01155   -3.99897   14.83002
      H    H4819    11.39327   -3.53403   14.26629
      H    H4820    12.52387   -3.30622   15.24697
      O    O4821     6.87472   -4.47138   21.50838
      H    H4822     6.54166   -3.84449   22.15048
      H    H4823     7.05139   -3.94520   20.72854
      O    O4824     6.08663   -2.50330   23.32330
      H    H4825     6.70403   -1.82820   23.04174
      H    H4826     5.22594   -2.09451   23.23205
      O    O4827     1.37987   -3.31332   12.20398
      H    H4828     1.00266   -2.82461   11.47247
      H    H4829     1.63717   -2.64079   12.83463
      O    O4830    17.00439   -1.03936   21.23876
      H    H4831    16.32074   -0.36945   21.23043
      H    H4832    17.54382   -0.84130   20.47325
      O    O4833    14.54027    0.80505   19.95328
      H    H4834    14.55298    0.40128   19.08550
      H    H4835    13.98779    1.57978   19.84942
      O    O4836    15.83481   -2.47333   15.04229
      H    H4837    15.72444   -3.41589   15.16724
      H    H4838    15.83163   -2.11176   15.92857
      O    O4839    13.93881   -4.29197   21.28154
      H    H4840    14.35569   -4.50595   20.44688
      H    H4841    14.66279   -4.03469   21.85240
      O    O4842    11.37684   -6.84680   14.39854
      H    H4843    10.44976   -6.91306   14.62739
      H    H4844    11.52932   -5.90878   14.28407
      O    O4845    17.88502   -5.89324   21.37316
      H    H4846    17.05688   -5.82393   20.89818
      H    H4847    18.48007   -5.30781   20.90475
      O    O4848    15.40656   -5.28477   14.90207
      H    H4849    14.78781   -5.62281   14.25470
      H    H4850    15.38901   -5.92879   15.60999
      O    O4851    14.84922   -9.10631   22.31865
      H    H4852    14.43634   -8.28094   22.57265
      H    H4853    14.11682   -9.69181   22.12629
      O    O4854     6.98250   -6.32032   17.18052
      H    H4855     6.57820   -7.03260   16.68511
      H    H4856     7.06881   -6.66500   18.06932
      O    O4857     7.45067   -2.63357   19.34444
      H    H4858     7.15350   -3.23902   18.66522
      H    H4859     8.40065   -2.59583   19.23337
      O    O4860     5.69536   -9.54600   20.96042
      H    H4861     6.24682   -9.43647   20.18575
      H    H4862     6.20971   -9.17224   21.67594
      O    O4863    15.53923    0.93962   23.00675
      H    H4864    15.06229    1.74684   22.81401
      H    H4865    14.85541    0.28745   23.15937
      O    O4866     6.54251   -2.89540   25.99522
      H    H4867     5.64537   -2.67140   26.24256
      H    H4868     6.56780   -2.77190   25.04636
      O    O4869    13.58303   -6.04608   11.90934
      H    H4870    14.02236   -6.88384   11.76313
      H    H4871    14.29588   -5.41314   11.99576
      O    O4872     5.36963   -6.02406   24.57095
      H    H4873     5.23041   -5.15178   24.93969
      H    H4874     4.48777   -6.36678   24.42575
      O    O4875    11.69257   -1.10648   15.87747
      H    H4876    12.13216   -0.36404   15.46301
      H    H4877    11.63126   -0.86382   16.80136
      O    O4878     7.16767   -0.08189   26.77947
      H    H4879     7.13921    0.32240   25.91231
      H    H4880     7.00417   -1.01086   26.61663
      O    O4881     3.68296   -7.42582   14.68118
      H    H4882     3.56272   -6.69961   14.06931
      H    H4883     3.37305   -8.19553   14.20397
      O    O4884    19.11915    0.70082   28.07589
      H    H4885    19.59512    1.17910   28.75479
      H    H4886    19.73987    0.63256   27.35044
      O    O4887     1.32150   -4.25431   20.48805
      H    H4888     1.39954   -4.11943   19.54362
      H    H4889     1.93567   -4.96272   20.68086
      O    O4890     2.56626   -2.55429   16.89866
      H    H4891     2.15907   -2.41283   16.04402
      H    H4892     3.45756   -2.83827   16.69578
      O    O4893    18.52248   -2.10790   25.23589
      H    H4894    18.64878   -2.34671   24.31761
      H    H4895    18.56461   -2.93945   25.70810
      O    O4896    12.38415    1.59490   23.80537
      H    H4897    12.89862    1.50570   24.60761
      H    H4898    11.54106    1.94087   24.09816
      O    O4899    14.35959    1.88043   13.23377
      H    H4900    14.19970    1.59073   14.13195
      H    H4901    14.19426    1.10445   12.69829
      O    O4902     6.83843    1.66029   15.01093
      H    H4903     6.66268    0.74384   14.79771
      H    H4904     5.98400    2.01902   15.25071
      O    O4905    14.06220   -0.61081   11.79357
      H    H4906    13.36872   -0.61308   11.13380
      H    H4907    14.80449   -1.03488   11.36299
      O    O4908    13.62720    1.01546   15.86842
      H    H4909    14.08289    0.23440   16.18228
      H    H4910    13.96645    1.72614   16.41254
      O    O4911     1.37745   -3.21289   23.02749
      H    H4912     1.54056   -3.68236   22.20943
      H    H4913     1.84270   -3.72054   23.69238
      O    O4914    12.53173   -8.49439   26.89663
      H    H4915    12.85707   -9.32802   26.55685
      H    H4916    13.31976   -7.97154   27.04446
      O    O4917     5.94075   -8.95896   15.79167
      H    H4918     5.71484   -9.17524   16.69634
      H    H4919     5.16000   -8.52611   15.44627
      O    O4920    13.17053   -8.95262   14.39074
      H    H4921    12.57142   -8.22904   14.20710
      H    H4922    13.71849   -9.01494   13.60838
      O    O4923     8.38067   -8.06040   26.45770
      H    H4924     8.28503   -9.00093   26.30774
      H    H4925     9.22387   -7.83889   26.06251
      O    O4926    12.36253   -7.72569   20.51614
      H    H4927    11.63064   -7.21701   20.86515
      H    H4928    11.96496   -8.54270   20.21502
      O    O4929     7.87443   -7.73895   11.31040
      H    H4930     7.30612   -8.18713   10.68399
      H    H4931     8.58333   -7.37967   10.77691
      O    O4932     2.95135   -3.83775   25.18707
      H    H4933     2.56683   -4.47838   25.78537
      H    H4934     3.26257   -3.13414   25.75655
      O    O4935     9.10106   -6.99010   20.66793
      H    H4936     9.46808   -7.46424   21.41407
      H    H4937     8.91157   -6.11594   21.00877
      O    O4938     6.89100   -7.94923   22.98636
      H    H4939     6.58671   -7.07003   23.21139
      H    H4940     7.84565   -7.88925   23.02210
      O    O4941     5.41918   -3.74313   13.58304
      H    H4942     4.64541   -4.28337   13.42291
      H    H4943     6.14864   -4.26247   13.24482
      O    O4944    16.17798   -4.74660   19.37568
      H    H4945    16.89789   -4.25107   18.98529
      H    H4946    15.97616   -5.42481   18.73107
      O    O4947    11.55986   -4.67569   25.26258
      H    H4948    11.49359   -5.59612   25.00834
      H    H4949    10.93037   -4.57815   25.97704
      O    O4950    14.35381   -8.98084   11.81483
      H    H4951    15.24177   -8.66911   11.63997
      H    H4952    14.32432   -9.85361   11.42289
      O    O4953     5.46292   -4.07509   17.22092
      H    H4954     5.98079   -4.87827   17.16661
      H    H4955     5.01132   -4.13718   18.06260
      O    O4956    10.34987   -2.80847   12.49365
      H    H4957    10.69144   -2.06424   11.99798
      H    H4958     9.52114   -2.49535   12.85613
      O    O4959     2.94737   -7.10896   24.13349
      H    H4960     2.58887   -6.44357   24.72083
      H    H4961     2.65283   -7.94060   24.50475
      O    O4962     6.14869   -6.65053   27.01745
      H    H4963     5.84870   -6.50482   26.12023
      H    H4964     6.91981   -7.21000   26.92479
      O    O4965    11.49153   -1.85363   25.01296
      H    H4966    11.50598   -2.78554   24.79485
      H    H4967    10.78404   -1.76766   25.65194
      O    O4968    16.62524   -7.66965   11.28282
      H    H4969    16.54161   -7.23823   10.43246
      H    H4970    17.34466   -7.20982   11.71550
      O    O4971    17.70265   -5.21290   24.35982
      H    H4972    16.97747   -4.62002   24.16276
      H    H4973    18.23020   -5.22055   23.56115
      O    O4974    17.65396   -0.81543   14.01103
      H    H4975    17.01158   -1.46986   14.28541
      H    H4976    17.26703   -0.40992   13.23510
      O    O4977    13.23261   -3.48688   17.85820
      H    H4978    13.58499   -4.08407   17.19834
      H    H4979    12.34884   -3.81246   18.02903
      O    O4980     9.31894   -2.72711   15.26524
      H    H4981    10.00605   -2.18019   15.64600
      H    H4982     8.53218   -2.18304   15.30020
      O    O4983     1.45818   -7.10983   10.75695
      H    H4984     2.32766   -6.82735   11.04054
      H    H4985     0.96721   -6.29624   10.64183
      O    O4986     8.62166   -5.72251   14.87778
      H    H4987     9.07794   -4.91199   15.10380
      H    H4988     8.27048   -6.04020   15.70963
      O    O4989    10.92492   -0.21188   22.10701
      H    H4990    11.56914   -0.00594   22.78435
      H    H4991    11.28786   -0.97304   21.65409
      O    O4992    12.19813   -2.20864   20.82475
      H    H4993    12.84035   -2.90933   20.93797
      H    H4994    12.72306   -1.42880   20.64444
      O    O4995    16.04370   -1.92378   10.54867
      H    H4996    15.81746   -2.64074   11.14113
      H    H4997    15.65332   -2.17254    9.71084
      O    O4998    13.97189   -1.40915   24.02836
      H    H4999    14.30751   -0.82248   24.70615
      H    H5000    13.05192   -1.53988   24.25814
      O    O5001     1.82530    2.10291   11.32311
      H    H5002     2.18507    2.70184   10.66884
      H    H5003     1.68454    2.64890   12.09662
      O    O5004    15.62533   -4.00659   12.21008
      H    H5005    15.33750   -3.54532   12.99787
      H    H5006    16.42054   -4.46681   12.47851
      O    O5007     1.80949    0.36839   25.79735
      H    H5008     1.91860   -0.57213   25.65689
      H    H5009     1.15755    0.63387   25.14873
      O    O5010     9.80075   -1.36002   27.19717
      H    H5011     9.48044   -2.07909   27.74174
      H    H5012     9.12658   -0.68451   27.27077
      O    O5013     7.84217   -0.51397   12.14048
      H    H5014     7.83318    0.21900   11.52493
      H    H5015     6.92200   -0.76082   12.23318
      O    O5016     3.44283   -5.29248   12.88516
      H    H5017     2.83562   -4.55259   12.89469
      H    H5018     3.91776   -5.20255   12.05898
      O    O5019    10.82813   -0.45115   10.80300
      H    H5020    10.92932   -0.65475    9.87320
      H    H5021     9.92830   -0.70532   11.00778
      O    O5022     9.97631   -8.47344   22.78464
      H    H5023    10.47483   -7.99886   23.44983
      H    H5024    10.11860   -9.39709   22.99165
      O    O5025     9.46994    2.06748   15.49777
      H    H5026     9.72409    2.02962   14.57570
      H    H5027     8.52118    1.94082   15.49059
      O    O5028    15.47519   -7.01333   17.07362
      H    H5029    14.53421   -6.99831   17.24839
      H    H5030    15.78960   -7.79973   17.51965
      O    O5031     5.45336   -5.33137   10.63401
      H    H5032     6.21969   -5.44323   11.19656
      H    H5033     5.53083   -6.02757    9.98169
      O    O5034     4.14803   -7.89886   11.31730
      H    H5035     4.22839   -8.84611   11.42904
      H    H5036     5.04001   -7.56817   11.42337
      O    O5037    17.47775    0.15756   18.74904
      H    H5038    17.60249    0.98067   19.22143
      H    H5039    18.34431   -0.05337   18.40146
      O    O5040     4.94951    2.25068   18.42076
      H    H5041     5.68575    1.70222   18.69161
      H    H5042     5.33360    3.11628   18.28136
      O    O5043     1.83405   -1.68197   14.29491
      H    H5044     0.90803   -1.43985   14.28545
      H    H5045     2.29970   -0.85454   14.17338
      O    O5046     3.95533    1.43528   27.60932
      H    H5047     4.75661    1.75649   28.02286
      H    H5048     3.44052    1.07484   28.33131
      O    O5049     8.05974    1.42371   10.24331
      H    H5050     8.85260    1.71259    9.79149
      H    H5051     7.54017    0.99292    9.56456
      O    O5052    12.79180   -2.45673   27.55686
      H    H5053    12.18561   -2.43357   26.81643
      H    H5054    12.48721   -3.18843   28.09358
      O    O5055    14.22183    1.27130   26.16780
      H    H5056    15.17401    1.18710   26.11782
      H    H5057    14.07466    1.93547   26.84118
      O    O5058    17.11275    0.65072   11.66699
      H    H5059    16.82690    0.23723   10.85241
      H    H5060    16.91471    1.57949   11.54704
      O    O5061     1.67511   -6.07737   26.55292
      H    H5062     2.17902   -6.65664   27.12454
      H    H5063     0.93586   -5.79335   27.09056
      O    O5064     8.57748   -3.35595   10.10755
      H    H5065     8.47254   -3.97072   10.83369
      H    H5066     8.40990   -3.87936    9.32385
      O    O5067     8.72891   -4.67027   26.08647
      H    H5068     7.96348   -4.10177   26.00194
      H    H5069     8.91050   -4.96265   25.19330
      O    O5070    11.81775   -4.29395   10.71175
      H    H5071    11.26876   -3.84702   11.35602
      H    H5072    12.43968   -4.79902   11.23552
      O    O5073    15.87124   -2.93974   26.64397
      H    H5074    16.61219   -2.60216   26.14072
      H    H5075    15.10851   -2.77053   26.09095
      O    O5076     3.70742   -7.93441   27.44793
      H    H5077     3.74796   -8.23302   28.35645
      H    H5078     4.56197   -7.53365   27.28868
      O    O5079     7.48526   -5.33486   12.60828
      H    H5080     7.90690   -5.50087   13.45142
      H    H5081     7.61035   -6.14483   12.11379
      O    O5082     5.64800   -9.35520   25.41538
      H    H5083     5.11765   -9.84611   24.78771
      H    H5084     6.31681   -8.92678   24.88117
      O    O5085     9.99803   -6.31110    9.85599
      H    H5086    10.51859   -7.02619    9.49010
      H    H5087    10.64487   -5.67251   10.15604
      O    O5088    14.54581   -4.88826   25.17950
      H    H5089    14.95991   -4.73375   26.02854
      H    H5090    13.61091   -4.76273   25.34207
      O    O5091    15.01803   -7.54864   27.18341
      H    H5092    15.60010   -8.30341   27.09546
      H    H5093    15.19420   -7.01790   26.40656
      O    O5094     9.30733   -4.93621   23.14909
      H    H5095     9.72614   -4.09293   22.97671
      H    H5096     8.38820   -4.79900   22.91977
      O    O5097    11.64372   -7.20459   24.53287
      H    H5098    11.76334   -7.80048   25.27236
      H    H5099    12.50312   -7.16762   24.11300
      O    O5100    13.98251   -6.65087   23.10912
      H    H5101    13.45603   -6.12661   22.50564
      H    H5102    14.32565   -6.01813   23.74010
      O    O5103     7.15807    1.36909   24.26486
      H    H5104     6.62018    2.09370   23.94573
      H    H5105     7.41147    0.89213   23.47460
      O    O5106    10.01430    2.60421   24.52353
      H    H5107     9.94017    3.50773   24.83076
      H    H5108     9.11218    2.28540   24.49573
      O    O5109    10.56283    1.77007   12.14616
      H    H5110    11.45791    2.10856   12.16804
      H    H5111    10.59459    1.04801   11.51859
      O    O5112     4.20244   -2.85723   10.37486
      H    H5113     4.63993   -2.31426   11.03062
      H    H5114     4.68722   -3.68253   10.38450
      O    O5115     1.41702   -0.06833   17.82689
      H    H5116     1.74733   -0.93622   17.59475
      H    H5117     1.84612    0.13753   18.65738
      O    O5118     6.01322   -1.73743   15.48709
      H    H5119     5.71277   -1.86093   16.38748
      H    H5120     5.90697   -2.59657   15.07866
      O    O5121     1.90605    0.79873   20.56505
      H    H5122     1.46914    0.97881   21.39747
      H    H5123     2.47381    1.55619   20.42322
      O    O5124    17.54226    0.30043   24.85278
      H    H5125    16.94246    0.35969   24.10917
      H    H5126    17.67165   -0.63907   24.98247
      O    O5127    18.78241   -1.95779   10.18975
      H    H5128    17.95170   -1.89012   10.66048
      H    H5129    18.95959   -1.06737    9.88644
      O    O5130    18.23805   -5.21304   12.69317
      H    H5131    18.99995   -4.64337   12.79914
      H    H5132    18.25349   -5.78032   13.46400
      O    O5133     1.73849   -6.68924   16.92394
      H    H5134     1.08337   -6.95808   16.27991
      H    H5135     2.57628   -6.79880   16.47414
      O    O5136    19.24405   -4.35803   17.53737
      H    H5137    19.61493   -5.14130   17.13096
      H    H5138    19.88424   -3.66912   17.35910
      O    O5139    16.22743   -2.97437   22.95040
      H    H5140    15.41341   -2.54465   23.21298
      H    H5141    16.63485   -2.36253   22.33730
      O    O5142    18.28997   -4.91960    9.85043
      H    H5143    18.56486   -4.01171    9.72235
      H    H5144    18.10105   -4.98335   10.78662
      O    O5145    18.18651   -6.98270   14.84337
      H    H5146    17.81087   -7.74991   14.41150
      H    H5147    17.45682   -6.60043   15.33086
      O    O5148     2.77608   -6.30399   21.46427
      H    H5149     3.14339   -6.39125   22.34388
      H    H5150     2.20716   -7.06733   21.36496
      O    O5151    17.57647   -7.83555   24.47732
      H    H5152    17.34508   -8.06427   23.57712
      H    H5153    17.83692   -6.91559   24.43181
      O    O5154     2.32768   -9.39308   25.37012
      H    H5155     1.43329   -9.42640   25.70949
      H    H5156     2.86744   -9.19440   26.13524
      O    O5157     0.95230   -9.47935   12.86647
      H    H5158     0.04870   -9.21633   12.69164
      H    H5159     1.43636   -9.20823   12.08647
      O    O5160    17.46160   -8.75695   18.14409
      H    H5161    17.98535   -9.25069   17.51311
      H    H5162    18.04754   -8.62192   18.88885
      O    O5163    17.64057   -8.67297   21.66605
      H    H5164    16.69084   -8.70661   21.78055
      H    H5165    17.82187   -7.76295   21.43102
      O    O5166    16.28503    1.77749   16.47723
      H    H5167    16.88094    1.45595   15.80067
      H    H5168    16.54285    1.30467   17.26855
      O    O5169     4.19129   -1.79072   26.62629
      H    H5170     4.14825   -2.16143   27.50773
      H    H5171     4.32239   -0.85296   26.76647
      O    O5172     7.89189   -0.23476   22.22726
      H    H5173     7.65103    0.03270   21.34031
      H    H5174     8.83216   -0.06419   22.28235
      O    O5175    19.15231    1.78468   23.02832
      H    H5176    18.65814    2.18157   22.31104
      H    H5177    18.54364    1.15960   23.42205
      O    O5178     4.03009    1.15551   23.74607
      H    H5179     3.43612    1.02398   24.48507
      H    H5180     4.02248    0.31932   23.28028
      O    O5181    16.83625    2.42702   20.30700
      H    H5182    16.37655    3.17860   19.93280
      H    H5183    16.20750    1.70767   20.24848
      O    O5184     3.66132   -1.47866   22.69687
      H    H5185     2.93472   -2.09813   22.62947
      H    H5186     3.72223   -1.08459   21.82668
      O    O5187     7.26583    0.73584   19.48181
      H    H5188     7.78233    0.12458   18.95664
      H    H5189     7.91556    1.23872   19.97291
      O    O5190    10.00538    1.62669   20.30871
      H    H5191    10.29316    1.37212   19.43201
      H    H5192    10.51770    1.07443   20.89927
      O    O5193     1.94432    1.83878   15.90655
      H    H5194     1.77652    1.20585   16.60474
      H    H5195     1.07777    2.04472   15.55597
      O    O5196     3.55059    0.53211   13.35156
      H    H5197     3.02535    0.91291   12.64776
      H    H5198     3.47504    1.15718   14.07253
      O    O5199    10.07261    2.54830   27.67553
      H    H5200    10.99934    2.31273   27.71913
      H    H5201    10.05765    3.37550   27.19413
      O    O5202    18.30712    2.09086   14.67295
      H    H5203    18.48234    1.40463   14.02905
      H    H5204    17.60927    2.61557   14.28062
      O    O5205     6.14988    2.48034   12.22649
      H    H5206     6.88176    2.19627   11.67887
      H    H5207     6.40925    2.24167   13.11642
      O    O5208     5.31136   -1.40318   12.23112
      H    H5209     4.68225   -0.93467   12.77970
      H    H5210     5.42614   -2.24826   12.66574
      O    O5211    16.64037    1.77529   27.49963
      H    H5212    17.43290    1.28021   27.29223
      H    H5213    16.93368    2.45430   28.10719
      O    O5214    31.54068   -7.35262   17.15559
      H    H5215    31.46009   -8.26716   16.88476
      H    H5216    31.12713   -6.85591   16.44956
      O    O5217    29.67249   -5.57471   19.03651
      H    H5218    28.89670   -6.05467   19.32637
      H    H5219    30.32378   -6.25415   18.86213
      O    O5220    23.68907   -5.26273   19.91409
      H    H5221    22.85756   -5.51786   20.31374
      H    H5222    24.29717   -5.19166   20.64988
      O    O5223    33.69323   -1.16870   17.81643
      H    H5224    33.23138   -1.93997   18.14514
      H    H5225    34.50579   -1.14209   18.32167
      O    O5226    23.66920   -1.22872   20.10989
      H    H5227    23.97200   -2.11895   19.93091
      H    H5228    24.41356   -0.67170   19.88212
      O    O5229    20.06157   -7.70198   19.58230
      H    H5230    20.63318   -8.46976   19.58266
      H    H5231    20.06172   -7.40310   18.67296
      O    O5232    29.91956    1.11711   17.43683
      H    H5233    29.30071    1.57286   16.86627
      H    H5234    30.77474    1.27225   17.03580
      O    O5235    29.11339   -2.89900   19.04353
      H    H5236    29.04421   -3.84000   18.88244
      H    H5237    29.87537   -2.80885   19.61579
      O    O5238    26.11518   -8.75076   19.06469
      H    H5239    26.62300   -8.25266   19.70519
      H    H5240    26.64650   -9.52724   18.88862
      O    O5241    30.78590   -3.99897   14.83002
      H    H5242    30.16762   -3.53403   14.26629
      H    H5243    31.29822   -3.30622   15.24697
      O    O5244    25.64907   -4.47138   21.50838
      H    H5245    25.31601   -3.84449   22.15048
      H    H5246    25.82574   -3.94520   20.72854
      O    O5247    24.86098   -2.50330   23.32330
      H    H5248    25.47838   -1.82820   23.04174
      H    H5249    24.00029   -2.09451   23.23205
      O    O5250    20.15422   -3.31332   12.20398
      H    H5251    19.77701   -2.82461   11.47247
      H    H5252    20.41152   -2.64079   12.83463
      O    O5253    35.77874   -1.03936   21.23876
      H    H5254    35.09509   -0.36945   21.23043
      H    H5255    36.31817   -0.84130   20.47325
      O    O5256    33.31462    0.80505   19.95328
      H    H5257    33.32733    0.40128   19.08550
      H    H5258    32.76214    1.57978   19.84942
      O    O5259    34.60916   -2.47333   15.04229
      H    H5260    34.49879   -3.41589   15.16724
      H    H5261    34.60598   -2.11176   15.92857
      O    O5262    32.71316   -4.29197   21.28154
      H    H5263    33.13004   -4.50595   20.44688
      H    H5264    33.43714   -4.03469   21.85240
      O    O5265    30.15119   -6.84680   14.39854
      H    H5266    29.22411   -6.91306   14.62739
      H    H5267    30.30367   -5.90878   14.28407
      O    O5268    36.65937   -5.89324   21.37316
      H    H5269    35.83123   -5.82393   20.89818
      H    H5270    37.25442   -5.30781   20.90475
      O    O5271    34.18091   -5.28477   14.90207
      H    H5272    33.56216   -5.62281   14.25470
      H    H5273    34.16336   -5.92879   15.60999
      O    O5274    33.62357   -9.10631   22.31865
      H    H5275    33.21069   -8.28094   22.57265
      H    H5276    32.89117   -9.69181   22.12629
      O    O5277    25.75685   -6.32032   17.18052
      H    H5278    25.35255   -7.03260   16.68511
      H    H5279    25.84316   -6.66500   18.06932
      O    O5280    26.22502   -2.63357   19.34444
      H    H5281    25.92785   -3.23902   18.66522
      H    H5282    27.17500   -2.59583   19.23337
      O    O5283    24.46971   -9.54600   20.96042
      H    H5284    25.02117   -9.43647   20.18575
      H    H5285    24.98406   -9.17224   21.67594
      O    O5286    34.31358    0.93962   23.00675
      H    H5287    33.83664    1.74684   22.81401
      H    H5288    33.62976    0.28745   23.15937
      O    O5289    25.31686   -2.89540   25.99522
      H    H5290    24.41972   -2.67140   26.24256
      H    H5291    25.34215   -2.77190   25.04636
      O    O5292    32.35738   -6.04608   11.90934
      H    H5293    32.79671   -6.88384   11.76313
      H    H5294    33.07023   -5.41314   11.99576
      O    O5295    24.14398   -6.02406   24.57095
      H    H5296    24.00476   -5.15178   24.93969
      H    H5297    23.26212   -6.36678   24.42575
      O    O5298    30.46692   -1.10648   15.87747
      H    H5299    30.90651   -0.36404   15.46301
      H    H5300    30.40561   -0.86382   16.80136
      O    O5301    25.94202   -0.08189   26.77947
      H    H5302    25.91356    0.32240   25.91231
      H    H5303    25.77852   -1.01086   26.61663
      O    O5304    22.45731   -7.42582   14.68118
      H    H5305    22.33707   -6.69961   14.06931
      H    H5306    22.14740   -8.19553   14.20397
      O    O5307    37.89350    0.70082   28.07589
      H    H5308    38.36947    1.17910   28.75479
      H    H5309    38.51422    0.63256   27.35044
      O    O5310    20.09585   -4.25431   20.48805
      H    H5311    20.17389   -4.11943   19.54362
      H    H5312    20.71002   -4.96272   20.68086
      O    O5313    21.34061   -2.55429   16.89866
      H    H5314    20.93342   -2.41283   16.04402
      H    H5315    22.23191   -2.83827   16.69578
      O    O5316    37.29683   -2.10790   25.23589
      H    H5317    37.42313   -2.34671   24.31761
      H    H5318    37.33896   -2.93945   25.70810
      O    O5319    31.15850    1.59490   23.80537
      H    H5320    31.67297    1.50570   24.60761
      H    H5321    30.31541    1.94087   24.09816
      O    O5322    33.13394    1.88043   13.23377
      H    H5323    32.97405    1.59073   14.13195
      H    H5324    32.96861    1.10445   12.69829
      O    O5325    25.61278    1.66029   15.01093
      H    H5326    25.43703    0.74384   14.79771
      H    H5327    24.75835    2.01902   15.25071
      O    O5328    32.83655   -0.61081   11.79357
      H    H5329    32.14307   -0.61308   11.13380
      H    H5330    33.57884   -1.03488   11.36299
      O    O5331    32.40155    1.01546   15.86842
      H    H5332    32.85724    0.23440   16.18228
      H    H5333    32.74080    1.72614   16.41254
      O    O5334    20.15180   -3.21289   23.02749
      H    H5335    20.31491   -3.68236   22.20943
      H    H5336    20.61705   -3.72054   23.69238
      O    O5337    31.30608   -8.49439   26.89663
      H    H5338    31.63142   -9.32802   26.55685
      H    H5339    32.09411   -7.97154   27.04446
      O    O5340    24.71510   -8.95896   15.79167
      H    H5341    24.48919   -9.17524   16.69634
      H    H5342    23.93435   -8.52611   15.44627
      O    O5343    31.94488   -8.95262   14.39074
      H    H5344    31.34577   -8.22904   14.20710
      H    H5345    32.49284   -9.01494   13.60838
      O    O5346    27.15502   -8.06040   26.45770
      H    H5347    27.05938   -9.00093   26.30774
      H    H5348    27.99822   -7.83889   26.06251
      O    O5349    31.13688   -7.72569   20.51614
      H    H5350    30.40499   -7.21701   20.86515
      H    H5351    30.73931   -8.54270   20.21502
      O    O5352    26.64878   -7.73895   11.31040
      H    H5353    26.08047   -8.18713   10.68399
      H    H5354    27.35768   -7.37967   10.77691
      O    O5355    21.72570   -3.83775   25.18707
      H    H5356    21.34118   -4.47838   25.78537
      H    H5357    22.03692   -3.13414   25.75655
      O    O5358    27.87541   -6.99010   20.66793
      H    H5359    28.24243   -7.46424   21.41407
      H    H5360    27.68592   -6.11594   21.00877
      O    O5361    25.66535   -7.94923   22.98636
      H    H5362    25.36106   -7.07003   23.21139
      H    H5363    26.62000   -7.88925   23.02210
      O    O5364    24.19353   -3.74313   13.58304
      H    H5365    23.41976   -4.28337   13.42291
      H    H5366    24.92299   -4.26247   13.24482
      O    O5367    34.95233   -4.74660   19.37568
      H    H5368    35.67224   -4.25107   18.98529
      H    H5369    34.75051   -5.42481   18.73107
      O    O5370    30.33421   -4.67569   25.26258
      H    H5371    30.26794   -5.59612   25.00834
      H    H5372    29.70472   -4.57815   25.97704
      O    O5373    33.12816   -8.98084   11.81483
      H    H5374    34.01612   -8.66911   11.63997
      H    H5375    33.09867   -9.85361   11.42289
      O    O5376    24.23727   -4.07509   17.22092
      H    H5377    24.75514   -4.87827   17.16661
      H    H5378    23.78567   -4.13718   18.06260
      O    O5379    29.12422   -2.80847   12.49365
      H    H5380    29.46579   -2.06424   11.99798
      H    H5381    28.29549   -2.49535   12.85613
      O    O5382    21.72172   -7.10896   24.13349
      H    H5383    21.36322   -6.44357   24.72083
      H    H5384    21.42718   -7.94060   24.50475
      O    O5385    24.92304   -6.65053   27.01745
      H    H5386    24.62305   -6.50482   26.12023
      H    H5387    25.69416   -7.21000   26.92479
      O    O5388    30.26588   -1.85363   25.01296
      H    H5389    30.28033   -2.78554   24.79485
      H    H5390    29.55839   -1.76766   25.65194
      O    O5391    35.39959   -7.66965   11.28282
      H    H5392    35.31596   -7.23823   10.43246
      H    H5393    36.11901   -7.20982   11.71550
      O    O5394    36.47700   -5.21290   24.35982
      H    H5395    35.75182   -4.62002   24.16276
      H    H5396    37.00455   -5.22055   23.56115
      O    O5397    36.42831   -0.81543   14.01103
      H    H5398    35.78593   -1.46986   14.28541
      H    H5399    36.04138   -0.40992   13.23510
      O    O5400    32.00696   -3.48688   17.85820
      H    H5401    32.35934   -4.08407   17.19834
      H    H5402    31.12319   -3.81246   18.02903
      O    O5403    28.09329   -2.72711   15.26524
      H    H5404    28.78040   -2.18019   15.64600
      H    H5405    27.30653   -2.18304   15.30020
      O    O5406    20.23253   -7.10983   10.75695
      H    H5407    21.10201   -6.82735   11.04054
      H    H5408    19.74156   -6.29624   10.64183
      O    O5409    27.39601   -5.72251   14.87778
      H    H5410    27.85229   -4.91199   15.10380
      H    H5411    27.04483   -6.04020   15.70963
      O    O5412    29.69927   -0.21188   22.10701
      H    H5413    30.34349   -0.00594   22.78435
      H    H5414    30.06221   -0.97304   21.65409
      O    O5415    30.97248   -2.20864   20.82475
      H    H5416    31.61470   -2.90933   20.93797
      H    H5417    31.49741   -1.42880   20.64444
      O    O5418    34.81805   -1.92378   10.54867
      H    H5419    34.59181   -2.64074   11.14113
      H    H5420    34.42767   -2.17254    9.71084
      O    O5421    32.74624   -1.40915   24.02836
      H    H5422    33.08186   -0.82248   24.70615
      H    H5423    31.82627   -1.53988   24.25814
      O    O5424    20.59965    2.10291   11.32311
      H    H5425    20.95942    2.70184   10.66884
      H    H5426    20.45889    2.64890   12.09662
      O    O5427    34.39968   -4.00659   12.21008
      H    H5428    34.11185   -3.54532   12.99787
      H    H5429    35.19489   -4.46681   12.47851
      O    O5430    20.58384    0.36839   25.79735
      H    H5431    20.69295   -0.57213   25.65689
      H    H5432    19.93190    0.63387   25.14873
      O    O5433    28.57510   -1.36002   27.19717
      H    H5434    28.25479   -2.07909   27.74174
      H    H5435    27.90093   -0.68451   27.27077
      O    O5436    26.61652   -0.51397   12.14048
      H    H5437    26.60753    0.21900   11.52493
      H    H5438    25.69635   -0.76082   12.23318
      O    O5439    22.21718   -5.29248   12.88516
      H    H5440    21.60997   -4.55259   12.89469
      H    H5441    22.69211   -5.20255   12.05898
      O    O5442    29.60248   -0.45115   10.80300
      H    H5443    29.70367   -0.65475    9.87320
      H    H5444    28.70265   -0.70532   11.00778
      O    O5445    28.75066   -8.47344   22.78464
      H    H5446    29.24918   -7.99886   23.44983
      H    H5447    28.89295   -9.39709   22.99165
      O    O5448    28.24429    2.06748   15.49777
      H    H5449    28.49844    2.02962   14.57570
      H    H5450    27.29553    1.94082   15.49059
      O    O5451    34.24954   -7.01333   17.07362
      H    H5452    33.30856   -6.99831   17.24839
      H    H5453    34.56395   -7.79973   17.51965
      O    O5454    24.22771   -5.33137   10.63401
      H    H5455    24.99404   -5.44323   11.19656
      H    H5456    24.30518   -6.02757    9.98169
      O    O5457    22.92238   -7.89886   11.31730
      H    H5458    23.00274   -8.84611   11.42904
      H    H5459    23.81436   -7.56817   11.42337
      O    O5460    36.25210    0.15756   18.74904
      H    H5461    36.37684    0.98067   19.22143
      H    H5462    37.11866   -0.05337   18.40146
      O    O5463    23.72386    2.25068   18.42076
      H    H5464    24.46010    1.70222   18.69161
      H    H5465    24.10795    3.11628   18.28136
      O    O5466    20.60840   -1.68197   14.29491
      H    H5467    19.68238   -1.43985   14.28545
      H    H5468    21.07405   -0.85454   14.17338
      O    O5469    22.72968    1.43528   27.60932
      H    H5470    23.53096    1.75649   28.02286
      H    H5471    22.21487    1.07484   28.33131
      O    O5472    26.83409    1.42371   10.24331
      H    H5473    27.62695    1.71259    9.79149
      H    H5474    26.31452    0.99292    9.56456
      O    O5475    31.56615   -2.45673   27.55686
      H    H5476    30.95996   -2.43357   26.81643
      H    H5477    31.26156   -3.18843   28.09358
      O    O5478    32.99618    1.27130   26.16780
      H    H5479    33.94836    1.18710   26.11782
      H    H5480    32.84901    1.93547   26.84118
      O    O5481    35.88710    0.65072   11.66699
      H    H5482    35.60125    0.23723   10.85241
      H    H5483    35.68906    1.57949   11.54704
      O    O5484    20.44946   -6.07737   26.55292
      H    H5485    20.95337   -6.65664   27.12454
      H    H5486    19.71021   -5.79335   27.09056
      O    O5487    27.35183   -3.35595   10.10755
      H    H5488    27.24689   -3.97072   10.83369
      H    H5489    27.18425   -3.87936    9.32385
      O    O5490    27.50326   -4.67027   26.08647
      H    H5491    26.73783   -4.10177   26.00194
      H    H5492    27.68485   -4.96265   25.19330
      O    O5493    30.59210   -4.29395   10.71175
      H    H5494    30.04311   -3.84702   11.35602
      H    H5495    31.21403   -4.79902   11.23552
      O    O5496    34.64559   -2.93974   26.64397
      H    H5497    35.38654   -2.60216   26.14072
      H    H5498    33.88286   -2.77053   26.09095
      O    O5499    22.48177   -7.93441   27.44793
      H    H5500    22.52231   -8.23302   28.35645
      H    H5501    23.33632   -7.53365   27.28868
      O    O5502    26.25961   -5.33486   12.60828
      H    H5503    26.68125   -5.50087   13.45142
      H    H5504    26.38470   -6.14483   12.11379
      O    O5505    24.42235   -9.35520   25.41538
      H    H5506    23.89200   -9.84611   24.78771
      H    H5507    25.09116   -8.92678   24.88117
      O    O5508    28.77238   -6.31110    9.85599
      H    H5509    29.29294   -7.02619    9.49010
      H    H5510    29.41922   -5.67251   10.15604
      O    O5511    33.32016   -4.88826   25.17950
      H    H5512    33.73426   -4.73375   26.02854
      H    H5513    32.38526   -4.76273   25.34207
      O    O5514    33.79238   -7.54864   27.18341
      H    H5515    34.37445   -8.30341   27.09546
      H    H5516    33.96855   -7.01790   26.40656
      O    O5517    28.08168   -4.93621   23.14909
      H    H5518    28.50049   -4.09293   22.97671
      H    H5519    27.16255   -4.79900   22.91977
      O    O5520    30.41807   -7.20459   24.53287
      H    H5521    30.53769   -7.80048   25.27236
      H    H5522    31.27747   -7.16762   24.11300
      O    O5523    32.75686   -6.65087   23.10912
      H    H5524    32.23038   -6.12661   22.50564
      H    H5525    33.10000   -6.01813   23.74010
      O    O5526    25.93242    1.36909   24.26486
      H    H5527    25.39453    2.09370   23.94573
      H    H5528    26.18582    0.89213   23.47460
      O    O5529    28.78865    2.60421   24.52353
      H    H5530    28.71452    3.50773   24.83076
      H    H5531    27.88653    2.28540   24.49573
      O    O5532    29.33718    1.77007   12.14616
      H    H5533    30.23226    2.10856   12.16804
      H    H5534    29.36894    1.04801   11.51859
      O    O5535    22.97679   -2.85723   10.37486
      H    H5536    23.41428   -2.31426   11.03062
      H    H5537    23.46157   -3.68253   10.38450
      O    O5538    20.19137   -0.06833   17.82689
      H    H5539    20.52168   -0.93622   17.59475
      H    H5540    20.62047    0.13753   18.65738
      O    O5541    24.78757   -1.73743   15.48709
      H    H5542    24.48712   -1.86093   16.38748
      H    H5543    24.68132   -2.59657   15.07866
      O    O5544    20.68040    0.79873   20.56505
      H    H5545    20.24349    0.97881   21.39747
      H    H5546    21.24816    1.55619   20.42322
      O    O5547    36.31661    0.30043   24.85278
      H    H5548    35.71681    0.35969   24.10917
      H    H5549    36.44600   -0.63907   24.98247
      O    O5550    37.55676   -1.95779   10.18975
      H    H5551    36.72605   -1.89012   10.66048
      H    H5552    37.73394   -1.06737    9.88644
      O    O5553    37.01240   -5.21304   12.69317
      H    H5554    37.77430   -4.64337   12.79914
      H    H5555    37.02784   -5.78032   13.46400
      O    O5556    20.51284   -6.68924   16.92394
      H    H5557    19.85772   -6.95808   16.27991
      H    H5558    21.35063   -6.79880   16.47414
      O    O5559    38.01840   -4.35803   17.53737
      H    H5560    38.38928   -5.14130   17.13096
      H    H5561    38.65859   -3.66912   17.35910
      O    O5562    35.00178   -2.97437   22.95040
      H    H5563    34.18776   -2.54465   23.21298
      H    H5564    35.40920   -2.36253   22.33730
      O    O5565    37.06432   -4.91960    9.85043
      H    H5566    37.33921   -4.01171    9.72235
      H    H5567    36.87540   -4.98335   10.78662
      O    O5568    36.96086   -6.98270   14.84337
      H    H5569    36.58522   -7.74991   14.41150
      H    H5570    36.23117   -6.60043   15.33086
      O    O5571    21.55043   -6.30399   21.46427
      H    H5572    21.91774   -6.39125   22.34388
      H    H5573    20.98151   -7.06733   21.36496
      O    O5574    36.35082   -7.83555   24.47732
      H    H5575    36.11943   -8.06427   23.57712
      H    H5576    36.61127   -6.91559   24.43181
      O    O5577    21.10203   -9.39308   25.37012
      H    H5578    20.20764   -9.42640   25.70949
      H    H5579    21.64179   -9.19440   26.13524
      O    O5580    19.72665   -9.47935   12.86647
      H    H5581    18.82305   -9.21633   12.69164
      H    H5582    20.21071   -9.20823   12.08647
      O    O5583    36.23595   -8.75695   18.14409
      H    H5584    36.75970   -9.25069   17.51311
      H    H5585    36.82189   -8.62192   18.88885
      O    O5586    36.41492   -8.67297   21.66605
      H    H5587    35.46519   -8.70661   21.78055
      H    H5588    36.59622   -7.76295   21.43102
      O    O5589    35.05938    1.77749   16.47723
      H    H5590    35.65529    1.45595   15.80067
      H    H5591    35.31720    1.30467   17.26855
      O    O5592    22.96564   -1.79072   26.62629
      H    H5593    22.92260   -2.16143   27.50773
      H    H5594    23.09674   -0.85296   26.76647
      O    O5595    26.66624   -0.23476   22.22726
      H    H5596    26.42538    0.03270   21.34031
      H    H5597    27.60651   -0.06419   22.28235
      O    O5598    37.92666    1.78468   23.02832
      H    H5599    37.43249    2.18157   22.31104
      H    H5600    37.31799    1.15960   23.42205
      O    O5601    22.80444    1.15551   23.74607
      H    H5602    22.21047    1.02398   24.48507
      H    H5603    22.79683    0.31932   23.28028
      O    O5604    35.61060    2.42702   20.30700
      H    H5605    35.15090    3.17860   19.93280
      H    H5606    34.98185    1.70767   20.24848
      O    O5607    22.43567   -1.47866   22.69687
      H    H5608    21.70907   -2.09813   22.62947
      H    H5609    22.49658   -1.08459   21.82668
      O    O5610    26.04018    0.73584   19.48181
      H    H5611    26.55668    0.12458   18.95664
      H    H5612    26.68991    1.23872   19.97291
      O    O5613    28.77973    1.62669   20.30871
      H    H5614    29.06751    1.37212   19.43201
      H    H5615    29.29205    1.07443   20.89927
      O    O5616    20.71867    1.83878   15.90655
      H    H5617    20.55087    1.20585   16.60474
      H    H5618    19.85212    2.04472   15.55597
      O    O5619    22.32494    0.53211   13.35156
      H    H5620    21.79970    0.91291   12.64776
      H    H5621    22.24939    1.15718   14.07253
      O    O5622    28.84696    2.54830   27.67553
      H    H5623    29.77369    2.31273   27.71913
      H    H5624    28.83200    3.37550   27.19413
      O    O5625    37.08147    2.09086   14.67295
      H    H5626    37.25669    1.40463   14.02905
      H    H5627    36.38362    2.61557   14.28062
      O    O5628    24.92423    2.48034   12.22649
      H    H5629    25.65611    2.19627   11.67887
      H    H5630    25.18360    2.24167   13.11642
      O    O5631    24.08571   -1.40318   12.23112
      H    H5632    23.45660   -0.93467   12.77970
      H    H5633    24.20049   -2.24826   12.66574
      O    O5634    35.41472    1.77529   27.49963
      H    H5635    36.20725    1.28021   27.29223
      H    H5636    35.70803    2.45430   28.10719
      O    O5637    -6.00802   11.42173   17.15559
      H    H5638    -6.08861   10.50719   16.88476
      H    H5639    -6.42157   11.91844   16.44956
      O    O5640    -7.87621   13.19964   19.03651
      H    H5641    -8.65200   12.71968   19.32637
      H    H5642    -7.22492   12.52020   18.86213
      O    O5643    -3.85547   17.60565   17.81643
      H    H5644    -4.31732   16.83438   18.14514
      H    H5645    -3.04291   17.63226   18.32167
      O    O5646    -7.62914   19.89146   17.43683
      H    H5647    -8.24799   20.34721   16.86627
      H    H5648    -6.77396   20.04660   17.03580
      O    O5649    -8.43531   15.87535   19.04353
      H    H5650    -8.50449   14.93435   18.88244
      H    H5651    -7.67333   15.96550   19.61579
      O    O5652    -7.40480    8.68239   19.27042
      H    H5653    -7.02831    7.80958   19.15779
      H    H5654    -7.50285    9.01826   18.37947
      O    O5655    -3.62238    6.17744   16.20326
      H    H5656    -2.80142    5.68709   16.24581
      H    H5657    -3.58898    6.76720   16.95644
      O    O5658     0.66757    8.19411   22.76762
      H    H5659    -0.03721    8.58228   22.24913
      H    H5660     0.93336    8.88914   23.36971
      O    O5661    -6.76280   14.77538   14.83002
      H    H5662    -7.38108   15.24032   14.26629
      H    H5663    -6.25048   15.46813   15.24697
      O    O5664    -3.38624    8.11747   18.97601
      H    H5665    -4.09068    8.40596   19.55632
      H    H5666    -3.02502    8.92749   18.61597
      O    O5667    -1.76996   17.73499   21.23876
      H    H5668    -2.45361   18.40490   21.23043
      H    H5669    -1.23053   17.93305   20.47325
      O    O5670    -0.31754    7.56295   19.36693
      H    H5671    -1.26505    7.59685   19.49848
      H    H5672     0.00745    8.37685   19.75187
      O    O5673    -4.23408   19.57940   19.95328
      H    H5674    -4.22137   19.17563   19.08550
      H    H5675    -4.78656   20.35413   19.84942
      O    O5676    -2.93954   16.30102   15.04229
      H    H5677    -3.04991   15.35846   15.16724
      H    H5678    -2.94272   16.66259   15.92857
      O    O5679    -4.83554   14.48238   21.28154
      H    H5680    -4.41866   14.26840   20.44688
      H    H5681    -4.11156   14.73966   21.85240
      O    O5682    -7.39751   11.92755   14.39854
      H    H5683    -8.32459   11.86129   14.62739
      H    H5684    -7.24503   12.86557   14.28407
      O    O5685    -7.41061    8.19925   11.39526
      H    H5686    -8.35024    8.36065   11.48051
      H    H5687    -7.09228    8.91782   10.84886
      O    O5688    -0.88933   12.88111   21.37316
      H    H5689    -1.71747   12.95042   20.89818
      H    H5690    -0.29428   13.46654   20.90475
      O    O5691    -3.36779   13.48958   14.90207
      H    H5692    -3.98654   13.15154   14.25470
      H    H5693    -3.38534   12.84556   15.60999
      O    O5694    -3.92513    9.66804   22.31865
      H    H5695    -4.33801   10.49341   22.57265
      H    H5696    -4.65753    9.08254   22.12629
      O    O5697    -3.23512   19.71397   23.00675
      H    H5698    -3.71206   20.52119   22.81401
      H    H5699    -3.91894   19.06180   23.15937
      O    O5700    -5.19132   12.72827   11.90934
      H    H5701    -4.75199   11.89051   11.76313
      H    H5702    -4.47847   13.36121   11.99576
      O    O5703    -7.08178   17.66787   15.87747
      H    H5704    -6.64219   18.41031   15.46301
      H    H5705    -7.14309   17.91053   16.80136
      O    O5706    -1.60960    3.98255   10.22345
      H    H5707    -1.92234    4.07523   11.12335
      H    H5708    -0.84835    4.56065   10.17319
      O    O5709     0.34480   19.47517   28.07589
      H    H5710     0.82077   19.95345   28.75479
      H    H5711     0.96552   19.40691   27.35044
      O    O5712    -0.25187   16.66645   25.23589
      H    H5713    -0.12557   16.42764   24.31761
      H    H5714    -0.20974   15.83490   25.70810
      O    O5715    -6.39020   20.36925   23.80537
      H    H5716    -5.87573   20.28005   24.60761
      H    H5717    -7.23329   20.71522   24.09816
      O    O5718    -4.41476   20.65478   13.23377
      H    H5719    -4.57465   20.36508   14.13195
      H    H5720    -4.58009   19.87880   12.69829
      O    O5721    -4.71215   18.16354   11.79357
      H    H5722    -5.40563   18.16127   11.13380
      H    H5723    -3.96986   17.73947   11.36299
      O    O5724    -5.14715   19.78981   15.86842
      H    H5725    -4.69146   19.00875   16.18228
      H    H5726    -4.80790   20.50049   16.41254
      O    O5727    -0.39947    8.71970   26.20086
      H    H5728    -1.01505    9.22766   25.67241
      H    H5729    -0.71983    7.81953   26.14346
      O    O5730    -8.33804    7.55889   23.66708
      H    H5731    -8.80010    7.76719   24.47907
      H    H5732    -8.74023    6.74482   23.36415
      O    O5733    -3.33759    8.77978   24.79675
      H    H5734    -4.18823    8.48036   25.11765
      H    H5735    -3.49741    9.02398   23.88513
      O    O5736    -6.24262   10.27996   26.89663
      H    H5737    -5.91728    9.44633   26.55685
      H    H5738    -5.45459   10.80281   27.04446
      O    O5739    -5.60382    9.82173   14.39074
      H    H5740    -6.20293   10.54531   14.20710
      H    H5741    -5.05586    9.75941   13.60838
      O    O5742    -6.99734    8.45808   16.42107
      H    H5743    -6.60438    8.77530   15.60794
      H    H5744    -6.63565    7.57927   16.53552
      O    O5745    -8.68812    7.20881   27.68075
      H    H5746    -9.37829    7.01603   28.31536
      H    H5747    -7.94489    7.49228   28.21318
      O    O5748    -6.41182   11.04866   20.51614
      H    H5749    -7.14371   11.55734   20.86515
      H    H5750    -6.80939   10.23165   20.21502
      O    O5751    -5.94923    6.50202   19.92844
      H    H5752    -5.93196    6.95289   20.77262
      H    H5753    -6.19767    5.60259   20.14178
      O    O5754    -2.52216    3.91524   25.76708
      H    H5755    -2.19758    3.18421   26.29287
      H    H5756    -2.48651    3.59661   24.86518
      O    O5757    -2.59637   14.02775   19.37568
      H    H5758    -1.87646   14.52328   18.98529
      H    H5759    -2.79819   13.34954   18.73107
      O    O5760    -7.13538    5.42155   13.51862
      H    H5761    -7.94892    4.92287   13.44315
      H    H5762    -7.32918    6.26137   13.10225
      O    O5763    -7.21449   14.09866   25.26258
      H    H5764    -7.28076   13.17823   25.00834
      H    H5765    -7.84398   14.19620   25.97704
      O    O5766    -4.42054    9.79351   11.81483
      H    H5767    -3.53258   10.10524   11.63997
      H    H5768    -4.45003    8.92074   11.42289
      O    O5769    -8.42448   15.96588   12.49365
      H    H5770    -8.08291   16.71011   11.99798
      H    H5771    -9.25321   16.27900   12.85613
      O    O5772    -7.28282   16.92072   25.01296
      H    H5773    -7.26837   15.98881   24.79485
      H    H5774    -7.99031   17.00669   25.65194
      O    O5775    -2.14911   11.10470   11.28282
      H    H5776    -2.23274   11.53612   10.43246
      H    H5777    -1.42969   11.56453   11.71550
      O    O5778    -1.07170   13.56145   24.35982
      H    H5779    -1.79688   14.15433   24.16276
      H    H5780    -0.54415   13.55380   23.56115
      O    O5781    -1.12039   17.95892   14.01103
      H    H5782    -1.76277   17.30449   14.28541
      H    H5783    -1.50732   18.36443   13.23510
      O    O5784    -5.54174   15.28747   17.85820
      H    H5785    -5.18936   14.69028   17.19834
      H    H5786    -6.42551   14.96189   18.02903
      O    O5787    -7.84943   18.56247   22.10701
      H    H5788    -7.20521   18.76841   22.78435
      H    H5789    -7.48649   17.80131   21.65409
      O    O5790    -6.57622   16.56571   20.82475
      H    H5791    -5.93400   15.86502   20.93797
      H    H5792    -6.05129   17.34555   20.64444
      O    O5793    -2.73065   16.85057   10.54867
      H    H5794    -2.95689   16.13361   11.14113
      H    H5795    -3.12103   16.60181    9.71084
      O    O5796    -4.80246   17.36520   24.02836
      H    H5797    -4.46684   17.95187   24.70615
      H    H5798    -5.72243   17.23447   24.25814
      O    O5799    -3.14902   14.76776   12.21008
      H    H5800    -3.43685   15.22903   12.99787
      H    H5801    -2.35381   14.30754   12.47851
      O    O5802    -5.75824    7.64695   22.56085
      H    H5803    -5.39016    6.82647   22.88880
      H    H5804    -6.61842    7.70714   22.97641
      O    O5805    -2.39204    6.60264   13.36960
      H    H5806    -3.02072    6.70721   12.65543
      H    H5807    -2.88685    6.82232   14.15899
      O    O5808    -7.94622   18.32320   10.80300
      H    H5809    -7.84503   18.11960    9.87320
      H    H5810    -8.84605   18.06903   11.00778
      O    O5811    -8.79804   10.30091   22.78464
      H    H5812    -8.29952   10.77549   23.44983
      H    H5813    -8.65575    9.37726   22.99165
      O    O5814    -6.39209    5.60630   16.22497
      H    H5815    -6.51531    5.62492   15.27592
      H    H5816    -5.44364    5.65420   16.34481
      O    O5817    -1.59136    6.51770   23.62748
      H    H5818    -2.09400    7.25824   23.96686
      H    H5819    -0.77569    6.90610   23.31116
      O    O5820    -3.29916   11.76102   17.07362
      H    H5821    -4.24014   11.77604   17.24839
      H    H5822    -2.98475   10.97462   17.51965
      O    O5823    -1.29660   18.93191   18.74904
      H    H5824    -1.17186   19.75502   19.22143
      H    H5825    -0.43004   18.72098   18.40146
      O    O5826    -5.98255   16.31762   27.55686
      H    H5827    -6.58874   16.34078   26.81643
      H    H5828    -6.28714   15.58592   28.09358
      O    O5829    -4.55252   20.04565   26.16780
      H    H5830    -3.60034   19.96145   26.11782
      H    H5831    -4.69969   20.70982   26.84118
      O    O5832    -1.66160   19.42507   11.66699
      H    H5833    -1.94745   19.01158   10.85241
      H    H5834    -1.85964   20.35384   11.54704
      O    O5835    -6.95660   14.48040   10.71175
      H    H5836    -7.50559   14.92733   11.35602
      H    H5837    -6.33467   13.97533   11.23552
      O    O5838    -2.90311   15.83461   26.64397
      H    H5839    -2.16216   16.17219   26.14072
      H    H5840    -3.66584   16.00382   26.09095
      O    O5841    -8.77632   12.46325    9.85599
      H    H5842    -8.25576   11.74816    9.49010
      H    H5843    -8.12948   13.10184   10.15604
      O    O5844    -4.22854   13.88609   25.17950
      H    H5845    -3.81444   14.04060   26.02854
      H    H5846    -5.16344   14.01162   25.34207
      O    O5847    -3.75632   11.22571   27.18341
      H    H5848    -3.17425   10.47094   27.09546
      H    H5849    -3.58015   11.75645   26.40656
      O    O5850    -7.13063   11.56976   24.53287
      H    H5851    -7.01101   10.97387   25.27236
      H    H5852    -6.27123   11.60673   24.11300
      O    O5853    -4.79184   12.12348   23.10912
      H    H5854    -5.31832   12.64774   22.50564
      H    H5855    -4.44870   12.75622   23.74010
      O    O5856    -5.54441    7.72848   26.02376
      H    H5857    -6.23286    7.06663   25.95876
      H    H5858    -4.82381    7.28230   26.46860
      O    O5859    -4.91437    4.32364   12.08278
      H    H5860    -4.63414    3.48043   12.43872
      H    H5861    -5.68779    4.55595   12.59666
      O    O5862    -8.76005   21.37856   24.52353
      H    H5863    -8.83418   22.28208   24.83076
      H    H5864    -9.66217   21.05975   24.49573
      O    O5865    -8.21152   20.54442   12.14616
      H    H5866    -7.31644   20.88291   12.16804
      H    H5867    -8.17976   19.82236   11.51859
      O    O5868    -1.23209   19.07478   24.85278
      H    H5869    -1.83189   19.13404   24.10917
      H    H5870    -1.10270   18.13528   24.98247
      O    O5871     0.00806   16.81656   10.18975
      H    H5872    -0.82265   16.88423   10.66048
      H    H5873     0.18524   17.70698    9.88644
      O    O5874    -0.53630   13.56131   12.69317
      H    H5875     0.22560   14.13098   12.79914
      H    H5876    -0.52086   12.99403   13.46400
      O    O5877     0.46970   14.41632   17.53737
      H    H5878     0.84058   13.63305   17.13096
      H    H5879     1.10989   15.10523   17.35910
      O    O5880    -2.54692   15.79998   22.95040
      H    H5881    -3.36094   16.22970   23.21298
      H    H5882    -2.13950   16.41182   22.33730
      O    O5883    -0.48438   13.85475    9.85043
      H    H5884    -0.20949   14.76264    9.72235
      H    H5885    -0.67330   13.79100   10.78662
      O    O5886    -4.08682    6.87923   11.14579
      H    H5887    -3.66833    6.69233   10.30545
      H    H5888    -4.39321    6.02714   11.45608
      O    O5889    -0.58784   11.79165   14.84337
      H    H5890    -0.96348   11.02444   14.41150
      H    H5891    -1.31753   12.17392   15.33086
      O    O5892    -1.19788   10.93880   24.47732
      H    H5893    -1.42927   10.71008   23.57712
      H    H5894    -0.93743   11.85876   24.43181
      O    O5895    -2.75908    6.16444   27.25529
      H    H5896    -1.88206    6.17278   27.63869
      H    H5897    -2.74699    5.42753   26.64453
      O    O5898    -1.31275   10.01740   18.14409
      H    H5899    -0.78900    9.52366   17.51311
      H    H5900    -0.72681   10.15243   18.88885
      O    O5901    -1.13378   10.10138   21.66605
      H    H5902    -2.08351   10.06774   21.78055
      H    H5903    -0.95248   11.01140   21.43102
      O    O5904    -1.82275    9.27473   14.08333
      H    H5905    -1.32684    9.04182   14.86822
      H    H5906    -2.02114    8.43592   13.66710
      O    O5907    -0.39404    7.91083   16.61710
      H    H5908    -0.50411    7.75643   17.55533
      H    H5909     0.36672    7.38292   16.37464
      O    O5910    -2.04746    3.85024   23.07540
      H    H5911    -1.41024    4.46365   23.44132
      H    H5912    -1.89997    3.88631   22.13032
      O    O5913     0.49499    5.74162    9.85772
      H    H5914     1.41992    5.60974    9.64954
      H    H5915     0.47257    5.82090   10.81136
      O    O5916     0.56884    6.51269   12.48339
      H    H5917    -0.22601    6.44720   13.01268
      H    H5918     0.77317    7.44775   12.47192
      O    O5919    -2.48932   20.55184   16.47723
      H    H5920    -1.89341   20.23030   15.80067
      H    H5921    -2.23150   20.07902   17.26855
      O    O5922    -8.67702    5.00286   25.98291
      H    H5923    -8.73813    5.59504   26.73245
      H    H5924    -7.73698    4.89546   25.83794
      O    O5925    -6.03956    4.65987   25.62214
      H    H5926    -5.42552    4.97779   24.96025
      H    H5927    -5.49460    4.17472   26.24173
      O    O5928     0.37796   20.55903   23.02832
      H    H5929    -0.11621   20.95592   22.31104
      H    H5930    -0.23071   19.93395   23.42205
      O    O5931    -5.29876    3.22308   21.94907
      H    H5932    -6.17277    3.55659   21.74636
      H    H5933    -5.40768    2.75040   22.77426
      O    O5934    -4.39156    5.43017   23.33324
      H    H5935    -4.72022    4.61534   22.95341
      H    H5936    -3.44333    5.38715   23.20981
      O    O5937    -1.93810   21.20137   20.30700
      H    H5938    -2.39780   21.95295   19.93280
      H    H5939    -2.56685   20.48202   20.24848
      O    O5940    -8.76897   20.40104   20.30871
      H    H5941    -8.48119   20.14647   19.43201
      H    H5942    -8.25665   19.84878   20.89927
      O    O5943    -7.55127    4.14006   20.88836
      H    H5944    -8.33409    4.61461   21.16804
      H    H5945    -7.84498    3.23555   20.77968
      O    O5946    -2.99917    4.84237   18.93327
      H    H5947    -2.55836    4.78688   18.08543
      H    H5948    -3.26841    5.75817   19.00429
      O    O5949    -1.13531    4.47390   16.94415
      H    H5950    -1.19647    3.53002   16.79725
      H    H5951    -0.35611    4.58191   17.48950
      O    O5952    -5.16335    3.22298   17.63827
      H    H5953    -4.56042    3.79500   18.11312
      H    H5954    -5.90405    3.78693   17.41566
      O    O5955    -2.01989    3.62514   12.91230
      H    H5956    -1.82483    4.52348   13.17904
      H    H5957    -2.80691    3.39385   13.40559
      O    O5958    -8.70174   21.32265   27.67553
      H    H5959    -7.77501   21.08708   27.71913
      H    H5960    -8.71670   22.14985   27.19413
      O    O5961    -0.46723   20.86521   14.67295
      H    H5962    -0.29201   20.17898   14.02905
      H    H5963    -1.16508   21.38992   14.28062
      O    O5964    -4.91383    3.40249   28.01776
      H    H5965    -5.02729    3.72195   28.91292
      H    H5966    -4.09686    3.80374   27.72149
      O    O5967    -2.13398   20.54964   27.49963
      H    H5968    -1.34145   20.05456   27.29223
      H    H5969    -1.84067   21.22865   28.10719
      O    O5970    12.76633   11.42173   17.15559
      H    H5971    12.68574   10.50719   16.88476
      H    H5972    12.35278   11.91844   16.44956
      O    O5973     4.91472   13.51162   19.91409
      H    H5974     4.08321   13.25649   20.31374
      H    H5975     5.52282   13.58269   20.64988
      O    O5976    14.91888   17.60565   17.81643
      H    H5977    14.45703   16.83438   18.14514
      H    H5978    15.73144   17.63226   18.32167
      O    O5979     4.89485   17.54563   20.10989
      H    H5980     5.19765   16.65540   19.93091
      H    H5981     5.63921   18.10265   19.88212
      O    O5982     3.32392    8.47181   13.69833
      H    H5983     2.43559    8.81340   13.59632
      H    H5984     3.60803    8.27184   12.80641
      O    O5985     1.28722   11.07237   19.58230
      H    H5986     1.85883   10.30459   19.58266
      H    H5987     1.28737   11.37125   18.67296
      O    O5988    11.14521   19.89146   17.43683
      H    H5989    10.52636   20.34721   16.86627
      H    H5990    12.00039   20.04660   17.03580
      O    O5991     2.52970    6.48081   21.36919
      H    H5992     2.34999    5.58338   21.64947
      H    H5993     2.12771    7.02799   22.04389
      O    O5994    11.36955    8.68239   19.27042
      H    H5995    11.74604    7.80958   19.15779
      H    H5996    11.27150    9.01826   18.37947
      O    O5997     5.50005    7.05496   14.73217
      H    H5998     5.60673    7.95533   15.03904
      H    H5999     4.58929    7.00675   14.44163
      O    O6000    15.15197    6.17744   16.20326
      H    H6001    15.97293    5.68709   16.24581
      H    H6002    15.18537    6.76720   16.95644
      O    O6003     3.14837    8.97686   19.97743
      H    H6004     3.82938    9.24069   20.59617
      H    H6005     2.83318    8.13694   20.31123
      O    O6006     7.34083   10.02359   19.06469
      H    H6007     7.84865   10.52169   19.70519
      H    H6008     7.87215    9.24711   18.88862
      O    O6009    19.44192    8.19411   22.76762
      H    H6010    18.73714    8.58228   22.24913
      H    H6011    19.70771    8.88914   23.36971
      O    O6012     5.62444    4.66345   23.33103
      H    H6013     5.62628    5.18069   22.52562
      H    H6014     4.79487    4.18647   23.30802
      O    O6015    12.01155   14.77538   14.83002
      H    H6016    11.39327   15.24032   14.26629
      H    H6017    12.52387   15.46813   15.24697
      O    O6018    15.38811    8.11747   18.97601
      H    H6019    14.68367    8.40596   19.55632
      H    H6020    15.74933    8.92749   18.61597
      O    O6021     5.30597    6.37444   21.33807
      H    H6022     5.64765    7.21865   21.04346
      H    H6023     4.36755    6.52282   21.45461
      O    O6024     6.08663   16.27105   23.32330
      H    H6025     6.70403   16.94615   23.04174
      H    H6026     5.22594   16.67984   23.23205
      O    O6027     1.37987   15.46103   12.20398
      H    H6028     1.00266   15.94974   11.47247
      H    H6029     1.63717   16.13356   12.83463
      O    O6030    17.00439   17.73499   21.23876
      H    H6031    16.32074   18.40490   21.23043
      H    H6032    17.54382   17.93305   20.47325
      O    O6033    18.45681    7.56295   19.36693
      H    H6034    17.50930    7.59685   19.49848
      H    H6035    18.78180    8.37685   19.75187
      O    O6036     8.98876    3.86267   17.66253
      H    H6037     9.29626    3.30736   16.94608
      H    H6038     8.05883    3.99712   17.47983
      O    O6039    14.54027   19.57940   19.95328
      H    H6040    14.55298   19.17563   19.08550
      H    H6041    13.98779   20.35413   19.84942
      O    O6042    15.83481   16.30102   15.04229
      H    H6043    15.72444   15.35846   15.16724
      H    H6044    15.83163   16.66259   15.92857
      O    O6045    11.37684   11.92755   14.39854
      H    H6046    10.44976   11.86129   14.62739
      H    H6047    11.52932   12.86557   14.28407
      O    O6048    11.36374    8.19925   11.39526
      H    H6049    10.42411    8.36065   11.48051
      H    H6050    11.68207    8.91782   10.84886
      O    O6051    17.88502   12.88111   21.37316
      H    H6052    17.05688   12.95042   20.89818
      H    H6053    18.48007   13.46654   20.90475
      O    O6054    15.40656   13.48958   14.90207
      H    H6055    14.78781   13.15154   14.25470
      H    H6056    15.38901   12.84556   15.60999
      O    O6057    14.84922    9.66804   22.31865
      H    H6058    14.43634   10.49341   22.57265
      H    H6059    14.11682    9.08254   22.12629
      O    O6060     5.69536    9.22835   20.96042
      H    H6061     6.24682    9.33788   20.18575
      H    H6062     6.20971    9.60211   21.67594
      O    O6063    15.53923   19.71397   23.00675
      H    H6064    15.06229   20.52119   22.81401
      H    H6065    14.85541   19.06180   23.15937
      O    O6066    13.58303   12.72827   11.90934
      H    H6067    14.02236   11.89051   11.76313
      H    H6068    14.29588   13.36121   11.99576
      O    O6069     5.36963   12.75029   24.57095
      H    H6070     5.23041   13.62257   24.93969
      H    H6071     4.48777   12.40757   24.42575
      O    O6072    11.69257   17.66787   15.87747
      H    H6073    12.13216   18.41031   15.46301
      H    H6074    11.63126   17.91053   16.80136
      O    O6075     3.68296   11.34853   14.68118
      H    H6076     3.56272   12.07474   14.06931
      H    H6077     3.37305   10.57882   14.20397
      O    O6078     1.32150   14.52004   20.48805
      H    H6079     1.39954   14.65492   19.54362
      H    H6080     1.93567   13.81163   20.68086
      O    O6081     2.56626   16.22006   16.89866
      H    H6082     2.15907   16.36152   16.04402
      H    H6083     3.45756   15.93608   16.69578
      O    O6084    12.38415   20.36925   23.80537
      H    H6085    12.89862   20.28005   24.60761
      H    H6086    11.54106   20.71522   24.09816
      O    O6087    14.35959   20.65478   13.23377
      H    H6088    14.19970   20.36508   14.13195
      H    H6089    14.19426   19.87880   12.69829
      O    O6090     6.83843   20.43464   15.01093
      H    H6091     6.66268   19.51819   14.79771
      H    H6092     5.98400   20.79337   15.25071
      O    O6093    14.06220   18.16354   11.79357
      H    H6094    13.36872   18.16127   11.13380
      H    H6095    14.80449   17.73947   11.36299
      O    O6096    13.62720   19.78981   15.86842
      H    H6097    14.08289   19.00875   16.18228
      H    H6098    13.96645   20.50049   16.41254
      O    O6099    18.37488    8.71970   26.20086
      H    H6100    17.75930    9.22766   25.67241
      H    H6101    18.05452    7.81953   26.14346
      O    O6102     1.37745   15.56146   23.02749
      H    H6103     1.54056   15.09199   22.20943
      H    H6104     1.84270   15.05381   23.69238
      O    O6105     6.14933    4.69203   18.06355
      H    H6106     5.70614    5.47299   17.73200
      H    H6107     6.70783    5.01502   18.77064
      O    O6108    10.43631    7.55889   23.66708
      H    H6109     9.97425    7.76719   24.47907
      H    H6110    10.03412    6.74482   23.36415
      O    O6111    15.43676    8.77978   24.79675
      H    H6112    14.58612    8.48036   25.11765
      H    H6113    15.27694    9.02398   23.88513
      O    O6114    12.53173   10.27996   26.89663
      H    H6115    12.85707    9.44633   26.55685
      H    H6116    13.31976   10.80281   27.04446
      O    O6117     9.26521    4.31310   12.94413
      H    H6118     8.64063    4.30909   13.66946
      H    H6119     9.17822    3.44620   12.54773
      O    O6120     8.18692    5.23677   19.92251
      H    H6121     8.48415    6.14305   19.84171
      H    H6122     8.73547    4.74864   19.30847
      O    O6123     5.94075    9.81539   15.79167
      H    H6124     5.71484    9.59911   16.69634
      H    H6125     5.16000   10.24824   15.44627
      O    O6126    13.17053    9.82173   14.39074
      H    H6127    12.57142   10.54531   14.20710
      H    H6128    13.71849    9.75941   13.60838
      O    O6129    11.77701    8.45808   16.42107
      H    H6130    12.16997    8.77530   15.60794
      H    H6131    12.13870    7.57927   16.53552
      O    O6132     3.51173    7.12532   24.61108
      H    H6133     3.11806    7.97284   24.81836
      H    H6134     2.82357    6.48795   24.80194
      O    O6135    10.08623    7.20881   27.68075
      H    H6136     9.39606    7.01603   28.31536
      H    H6137    10.82946    7.49228   28.21318
      O    O6138     0.81343    5.04816   18.64409
      H    H6139     0.52474    5.61845   19.35658
      H    H6140     1.55801    4.56861   19.00721
      O    O6141     1.00045    8.99017    9.85436
      H    H6142     0.91792    9.93325    9.99586
      H    H6143     0.64876    8.84766    8.97559
      O    O6144    12.36253   11.04866   20.51614
      H    H6145    11.63064   11.55734   20.86515
      H    H6146    11.96496   10.23165   20.21502
      O    O6147     8.80027    7.72408   18.92139
      H    H6148     8.80387    7.28307   18.07185
      H    H6149     9.69538    8.04581   19.02858
      O    O6150     4.65050    7.60673   17.88081
      H    H6151     4.31051    8.08425   18.63752
      H    H6152     3.88824    7.15324   17.52092
      O    O6153     8.86228    8.72528   11.91207
      H    H6154     8.98356    8.68393   12.86065
      H    H6155     8.47713    9.58770   11.75674
      O    O6156    12.82512    6.50202   19.92844
      H    H6157    12.84239    6.95289   20.77262
      H    H6158    12.57668    5.60259   20.14178
      O    O6159     7.87443   11.03540   11.31040
      H    H6160     7.30612   10.58722   10.68399
      H    H6161     8.58333   11.39468   10.77691
      O    O6162    16.25219    3.91524   25.76708
      H    H6163    16.57677    3.18421   26.29287
      H    H6164    16.28784    3.59661   24.86518
      O    O6165     2.95135   14.93660   25.18707
      H    H6166     2.56683   14.29597   25.78537
      H    H6167     3.26257   15.64021   25.75655
      O    O6168     1.96511    6.52862   16.79728
      H    H6169     1.67980    6.16419   17.63514
      H    H6170     1.90300    5.79667   16.18360
      O    O6171     6.89100   10.82512   22.98636
      H    H6172     6.58671   11.70432   23.21139
      H    H6173     7.84565   10.88510   23.02210
      O    O6174     5.41918   15.03122   13.58304
      H    H6175     4.64541   14.49098   13.42291
      H    H6176     6.14864   14.51188   13.24482
      O    O6177    16.17798   14.02775   19.37568
      H    H6178    16.89789   14.52328   18.98529
      H    H6179    15.97616   13.34954   18.73107
      O    O6180    11.63897    5.42155   13.51862
      H    H6181    10.82543    4.92287   13.44315
      H    H6182    11.44517    6.26137   13.10225
      O    O6183    14.35381    9.79351   11.81483
      H    H6184    15.24177   10.10524   11.63997
      H    H6185    14.32432    8.92074   11.42289
      O    O6186    10.34987   15.96588   12.49365
      H    H6187    10.69144   16.71011   11.99798
      H    H6188     9.52114   16.27900   12.85613
      O    O6189     2.94737   11.66539   24.13349
      H    H6190     2.58887   12.33078   24.72083
      H    H6191     2.65283   10.83375   24.50475
      O    O6192    16.62524   11.10470   11.28282
      H    H6193    16.54161   11.53612   10.43246
      H    H6194    17.34466   11.56453   11.71550
      O    O6195    17.70265   13.56145   24.35982
      H    H6196    16.97747   14.15433   24.16276
      H    H6197    18.23020   13.55380   23.56115
      O    O6198    17.65396   17.95892   14.01103
      H    H6199    17.01158   17.30449   14.28541
      H    H6200    17.26703   18.36443   13.23510
      O    O6201     9.31894   16.04724   15.26524
      H    H6202    10.00605   16.59416   15.64600
      H    H6203     8.53218   16.59131   15.30020
      O    O6204     1.45818   11.66452   10.75695
      H    H6205     2.32766   11.94700   11.04054
      H    H6206     0.96721   12.47811   10.64183
      O    O6207     8.62166   13.05184   14.87778
      H    H6208     9.07794   13.86236   15.10380
      H    H6209     8.27048   12.73415   15.70963
      O    O6210     4.52284    3.39560   15.35003
      H    H6211     4.39430    3.38739   16.29852
      H    H6212     3.69904    3.73391   14.99913
      O    O6213    16.04370   16.85057   10.54867
      H    H6214    15.81746   16.13361   11.14113
      H    H6215    15.65332   16.60181    9.71084
      O    O6216    13.97189   17.36520   24.02836
      H    H6217    14.30751   17.95187   24.70615
      H    H6218    13.05192   17.23447   24.25814
      O    O6219     1.82530   20.87726   11.32311
      H    H6220     2.18507   21.47619   10.66884
      H    H6221     1.68454   21.42325   12.09662
      O    O6222     1.52223    5.15472   24.81070
      H    H6223     0.80808    5.35441   25.41596
      H    H6224     1.94173    4.37867   25.18218
      O    O6225    15.62533   14.76776   12.21008
      H    H6226    15.33750   15.22903   12.99787
      H    H6227    16.42054   14.30754   12.47851
      O    O6228     1.80949   19.14274   25.79735
      H    H6229     1.91860   18.20222   25.65689
      H    H6230     1.15755   19.40822   25.14873
      O    O6231     7.84217   18.26038   12.14048
      H    H6232     7.83318   18.99335   11.52493
      H    H6233     6.92200   18.01353   12.23318
      O    O6234     3.44283   13.48187   12.88516
      H    H6235     2.83562   14.22176   12.89469
      H    H6236     3.91776   13.57180   12.05898
      O    O6237    13.01611    7.64695   22.56085
      H    H6238    13.38419    6.82647   22.88880
      H    H6239    12.15593    7.70714   22.97641
      O    O6240    16.38231    6.60264   13.36960
      H    H6241    15.75363    6.70721   12.65543
      H    H6242    15.88750    6.82232   14.15899
      O    O6243    10.82813   18.32320   10.80300
      H    H6244    10.92932   18.11960    9.87320
      H    H6245     9.92830   18.06903   11.00778
      O    O6246     8.35071    8.88124   14.78539
      H    H6247     7.64233    9.34987   15.22675
      H    H6248     8.63516    8.22344   15.41991
      O    O6249    12.38226    5.60630   16.22497
      H    H6250    12.25904    5.62492   15.27592
      H    H6251    13.33071    5.65420   16.34481
      O    O6252     9.46994   20.84183   15.49777
      H    H6253     9.72409   20.80397   14.57570
      H    H6254     8.52118   20.71517   15.49059
      O    O6255     6.55422    7.18974   12.16046
      H    H6256     7.40327    7.62676   12.09448
      H    H6257     6.18734    7.50177   12.98767
      O    O6258    17.18299    6.51770   23.62748
      H    H6259    16.68035    7.25824   23.96686
      H    H6260    17.99866    6.90610   23.31116
      O    O6261    15.47519   11.76102   17.07362
      H    H6262    14.53421   11.77604   17.24839
      H    H6263    15.78960   10.97462   17.51965
      O    O6264     5.45336   13.44298   10.63401
      H    H6265     6.21969   13.33112   11.19656
      H    H6266     5.53083   12.74678    9.98169
      O    O6267     4.14803   10.87549   11.31730
      H    H6268     4.22839    9.92824   11.42904
      H    H6269     5.04001   11.20618   11.42337
      O    O6270    17.47775   18.93191   18.74904
      H    H6271    17.60249   19.75502   19.22143
      H    H6272    18.34431   18.72098   18.40146
      O    O6273     4.94951   21.02503   18.42076
      H    H6274     5.68575   20.47657   18.69161
      H    H6275     5.33360   21.89063   18.28136
      O    O6276     1.83405   17.09238   14.29491
      H    H6277     0.90803   17.33450   14.28545
      H    H6278     2.29970   17.91981   14.17338
      O    O6279     3.95533   20.20963   27.60932
      H    H6280     4.75661   20.53084   28.02286
      H    H6281     3.44052   19.84919   28.33131
      O    O6282     8.05974   20.19806   10.24331
      H    H6283     8.85260   20.48694    9.79149
      H    H6284     7.54017   19.76727    9.56456
      O    O6285    12.79180   16.31762   27.55686
      H    H6286    12.18561   16.34078   26.81643
      H    H6287    12.48721   15.58592   28.09358
      O    O6288    14.22183   20.04565   26.16780
      H    H6289    15.17401   19.96145   26.11782
      H    H6290    14.07466   20.70982   26.84118
      O    O6291    17.11275   19.42507   11.66699
      H    H6292    16.82690   19.01158   10.85241
      H    H6293    16.91471   20.35384   11.54704
      O    O6294     1.67511   12.69698   26.55292
      H    H6295     2.17902   12.11771   27.12454
      H    H6296     0.93586   12.98100   27.09056
      O    O6297     8.57748   15.41840   10.10755
      H    H6298     8.47254   14.80363   10.83369
      H    H6299     8.40990   14.89499    9.32385
      O    O6300    11.81775   14.48040   10.71175
      H    H6301    11.26876   14.92733   11.35602
      H    H6302    12.43968   13.97533   11.23552
      O    O6303     3.70742   10.83994   27.44793
      H    H6304     3.74796   10.54133   28.35645
      H    H6305     4.56197   11.24070   27.28868
      O    O6306     7.48526   13.43949   12.60828
      H    H6307     7.90690   13.27348   13.45142
      H    H6308     7.61035   12.62952   12.11379
      O    O6309     5.64800    9.41915   25.41538
      H    H6310     5.11765    8.92824   24.78771
      H    H6311     6.31681    9.84757   24.88117
      O    O6312     9.99803   12.46325    9.85599
      H    H6313    10.51859   11.74816    9.49010
      H    H6314    10.64487   13.10184   10.15604
      O    O6315    14.54581   13.88609   25.17950
      H    H6316    14.95991   14.04060   26.02854
      H    H6317    13.61091   14.01162   25.34207
      O    O6318    15.01803   11.22571   27.18341
      H    H6319    15.60010   10.47094   27.09546
      H    H6320    15.19420   11.75645   26.40656
      O    O6321     6.13523    6.38539   25.49511
      H    H6322     6.04092    5.76746   24.77019
      H    H6323     5.55497    7.11201   25.26810
      O    O6324     8.90138    4.94271   22.52784
      H    H6325     8.45311    4.96514   21.68240
      H    H6326     8.26790    4.54461   23.12487
      O    O6327    13.98251   12.12348   23.10912
      H    H6328    13.45603   12.64774   22.50564
      H    H6329    14.32565   12.75622   23.74010
      O    O6330     6.38115    9.51282    9.55409
      H    H6331     6.18006    8.64955    9.91543
      H    H6332     6.21036    9.42615    8.61625
      O    O6333     8.41060    8.11190   25.79045
      H    H6334     9.00057    7.80348   26.47824
      H    H6335     7.59262    7.63987   25.94644
      O    O6336    13.22994    7.72848   26.02376
      H    H6337    12.54149    7.06663   25.95876
      H    H6338    13.95054    7.28230   26.46860
      O    O6339    13.85998    4.32364   12.08278
      H    H6340    14.14021    3.48043   12.43872
      H    H6341    13.08656    4.55595   12.59666
      O    O6342     5.17943    6.61288    9.54188
      H    H6343     5.48202    6.61962    8.63380
      H    H6344     5.91889    6.26266   10.03865
      O    O6345     8.39792    5.55634   10.52750
      H    H6346     8.05012    4.87874    9.94775
      H    H6347     8.59920    5.09529   11.34184
      O    O6348    10.56283   20.54442   12.14616
      H    H6349    11.45791   20.88291   12.16804
      H    H6350    10.59459   19.82236   11.51859
      O    O6351     4.20244   15.91712   10.37486
      H    H6352     4.63993   16.46009   11.03062
      H    H6353     4.68722   15.09182   10.38450
      O    O6354     1.41702   18.70602   17.82689
      H    H6355     1.74733   17.83813   17.59475
      H    H6356     1.84612   18.91188   18.65738
      O    O6357     6.01322   17.03692   15.48709
      H    H6358     5.71277   16.91342   16.38748
      H    H6359     5.90697   16.17778   15.07866
      O    O6360     1.90605   19.57308   20.56505
      H    H6361     1.46914   19.75316   21.39747
      H    H6362     2.47381   20.33054   20.42322
      O    O6363    17.54226   19.07478   24.85278
      H    H6364    16.94246   19.13404   24.10917
      H    H6365    17.67165   18.13528   24.98247
      O    O6366    18.78241   16.81656   10.18975
      H    H6367    17.95170   16.88423   10.66048
      H    H6368    18.95959   17.70698    9.88644
      O    O6369     1.73849   12.08511   16.92394
      H    H6370     1.08337   11.81627   16.27991
      H    H6371     2.57628   11.97555   16.47414
      O    O6372    19.24405   14.41632   17.53737
      H    H6373    19.61493   13.63305   17.13096
      H    H6374    19.88424   15.10523   17.35910
      O    O6375    16.22743   15.79998   22.95040
      H    H6376    15.41341   16.22970   23.21298
      H    H6377    16.63485   16.41182   22.33730
      O    O6378    14.68753    6.87923   11.14579
      H    H6379    15.10602    6.69233   10.30545
      H    H6380    14.38114    6.02714   11.45608
      O    O6381     2.77608   12.47036   21.46427
      H    H6382     3.14339   12.38310   22.34388
      H    H6383     2.20716   11.70702   21.36496
      O    O6384    17.57647   10.93880   24.47732
      H    H6385    17.34508   10.71008   23.57712
      H    H6386    17.83692   11.85876   24.43181
      O    O6387     2.32768    9.38127   25.37012
      H    H6388     1.43329    9.34795   25.70949
      H    H6389     2.86744    9.57995   26.13524
      O    O6390    16.01527    6.16444   27.25529
      H    H6391    16.89229    6.17278   27.63869
      H    H6392    16.02736    5.42753   26.64453
      O    O6393     0.95230    9.29500   12.86647
      H    H6394     0.04870    9.55802   12.69164
      H    H6395     1.43636    9.56612   12.08647
      O    O6396    17.46160   10.01740   18.14409
      H    H6397    17.98535    9.52366   17.51311
      H    H6398    18.04754   10.15243   18.88885
      O    O6399    17.64057   10.10138   21.66605
      H    H6400    16.69084   10.06774   21.78055
      H    H6401    17.82187   11.01140   21.43102
      O    O6402     3.49502    8.35155   10.77591
      H    H6403     4.20419    7.92987   10.29064
      H    H6404     2.77901    8.41908   10.14425
      O    O6405     3.14243    4.40549    9.81618
      H    H6406     3.86525    4.94638   10.13430
      H    H6407     3.41489    4.13183    8.94033
      O    O6408    16.95160    9.27473   14.08333
      H    H6409    17.44751    9.04182   14.86822
      H    H6410    16.75321    8.43592   13.66710
      O    O6411     2.83165    3.65610   19.71844
      H    H6412     3.47927    3.10584   19.27795
      H    H6413     3.25184    3.91042   20.54002
      O    O6414    16.72689    3.85024   23.07540
      H    H6415    17.36411    4.46365   23.44132
      H    H6416    16.87438    3.88631   22.13032
      O    O6417    16.28503   20.55184   16.47723
      H    H6418    16.88094   20.23030   15.80067
      H    H6419    16.54285   20.07902   17.26855
      O    O6420     2.58485    3.81167   22.46097
      H    H6421     2.23633    4.26805   23.22679
      H    H6422     2.25362    2.91738   22.54321
      O    O6423     4.19129   16.98363   26.62629
      H    H6424     4.14825   16.61292   27.50773
      H    H6425     4.32239   17.92139   26.76647
      O    O6426     7.89189   18.53959   22.22726
      H    H6427     7.65103   18.80705   21.34031
      H    H6428     8.83216   18.71016   22.28235
      O    O6429    10.09733    5.00286   25.98291
      H    H6430    10.03622    5.59504   26.73245
      H    H6431    11.03737    4.89546   25.83794
      O    O6432    12.73479    4.65987   25.62214
      H    H6433    13.34883    4.97779   24.96025
      H    H6434    13.27975    4.17472   26.24173
      O    O6435    19.15231   20.55903   23.02832
      H    H6436    18.65814   20.95592   22.31104
      H    H6437    18.54364   19.93395   23.42205
      O    O6438     3.25692    3.33929   25.73605
      H    H6439     3.80522    3.15810   24.97266
      H    H6440     3.32245    2.54870   26.27168
      O    O6441     4.03009   19.92986   23.74607
      H    H6442     3.43612   19.79833   24.48507
      H    H6443     4.02248   19.09367   23.28028
      O    O6444    13.47559    3.22308   21.94907
      H    H6445    12.60158    3.55659   21.74636
      H    H6446    13.36667    2.75040   22.77426
      O    O6447    14.38279    5.43017   23.33324
      H    H6448    14.05413    4.61534   22.95341
      H    H6449    15.33102    5.38715   23.20981
      O    O6450    16.83625   21.20137   20.30700
      H    H6451    16.37655   21.95295   19.93280
      H    H6452    16.20750   20.48202   20.24848
      O    O6453     3.66132   17.29569   22.69687
      H    H6454     2.93472   16.67622   22.62947
      H    H6455     3.72223   17.68976   21.82668
      O    O6456     7.26583   19.51019   19.48181
      H    H6457     7.78233   18.89893   18.95664
      H    H6458     7.91556   20.01307   19.97291
      O    O6459    10.00538   20.40104   20.30871
      H    H6460    10.29316   20.14647   19.43201
      H    H6461    10.51770   19.84878   20.89927
      O    O6462    11.22308    4.14006   20.88836
      H    H6463    10.44026    4.61461   21.16804
      H    H6464    10.92937    3.23555   20.77968
      O    O6465    15.77518    4.84237   18.93327
      H    H6466    16.21599    4.78688   18.08543
      H    H6467    15.50594    5.75817   19.00429
      O    O6468    17.63904    4.47390   16.94415
      H    H6469    17.57788    3.53002   16.79725
      H    H6470    18.41824    4.58191   17.48950
      O    O6471     1.94432   20.61313   15.90655
      H    H6472     1.77652   19.98020   16.60474
      H    H6473     1.07777   20.81907   15.55597
      O    O6474     2.56712    4.44481   13.40973
      H    H6475     3.32505    4.55770   12.83614
      H    H6476     2.10483    5.28173   13.36408
      O    O6477     9.10850    6.55874   16.39996
      H    H6478     8.29595    6.18443   16.05955
      H    H6479     9.61266    5.80325   16.70208
      O    O6480    13.61100    3.22298   17.63827
      H    H6481    14.21393    3.79500   18.11312
      H    H6482    12.87030    3.78693   17.41566
      O    O6483    16.75446    3.62514   12.91230
      H    H6484    16.94952    4.52348   13.17904
      H    H6485    15.96744    3.39385   13.40559
      O    O6486     3.55059   19.30646   13.35156
      H    H6487     3.02535   19.68726   12.64776
      H    H6488     3.47504   19.93153   14.07253
      O    O6489     4.93963    4.97122   11.94993
      H    H6490     5.46891    4.18420   11.82072
      H    H6491     5.57246    5.65034   12.18348
      O    O6492     7.13342    4.70873   15.00447
      H    H6493     6.50369    4.00746   15.17148
      H    H6494     6.59393    5.46914   14.78778
      O    O6495    10.07261   21.32265   27.67553
      H    H6496    10.99934   21.08708   27.71913
      H    H6497    10.05765   22.14985   27.19413
      O    O6498    18.30712   20.86521   14.67295
      H    H6499    18.48234   20.17898   14.02905
      H    H6500    17.60927   21.38992   14.28062
      O    O6501     7.25897    3.98713   27.43972
      H    H6502     6.97740    4.49049   26.67580
      H    H6503     7.64094    3.18930   27.07393
      O    O6504     6.14988   21.25469   12.22649
      H    H6505     6.88176   20.97062   11.67887
      H    H6506     6.40925   21.01602   13.11642
      O    O6507     5.31136   17.37117   12.23112
      H    H6508     4.68225   17.83968   12.77970
      H    H6509     5.42614   16.52609   12.66574
      O    O6510    13.86052    3.40249   28.01776
      H    H6511    13.74706    3.72195   28.91292
      H    H6512    14.67749    3.80374   27.72149
      O    O6513    16.64037   20.54964   27.49963
      H    H6514    17.43290   20.05456   27.29223
      H    H6515    16.93368   21.22865   28.10719
      O    O6516    31.54068   11.42173   17.15559
      H    H6517    31.46009   10.50719   16.88476
      H    H6518    31.12713   11.91844   16.44956
      O    O6519    29.67249   13.19964   19.03651
      H    H6520    28.89670   12.71968   19.32637
      H    H6521    30.32378   12.52020   18.86213
      O    O6522    33.69323   17.60565   17.81643
      H    H6523    33.23138   16.83438   18.14514
      H    H6524    34.50579   17.63226   18.32167
      O    O6525    22.09827    8.47181   13.69833
      H    H6526    21.20994    8.81340   13.59632
      H    H6527    22.38238    8.27184   12.80641
      O    O6528    20.06157   11.07237   19.58230
      H    H6529    20.63318   10.30459   19.58266
      H    H6530    20.06172   11.37125   18.67296
      O    O6531    29.91956   19.89146   17.43683
      H    H6532    29.30071   20.34721   16.86627
      H    H6533    30.77474   20.04660   17.03580
      O    O6534    29.11339   15.87535   19.04353
      H    H6535    29.04421   14.93435   18.88244
      H    H6536    29.87537   15.96550   19.61579
      O    O6537    21.30405    6.48081   21.36919
      H    H6538    21.12434    5.58338   21.64947
      H    H6539    20.90206    7.02799   22.04389
      O    O6540    30.14390    8.68239   19.27042
      H    H6541    30.52039    7.80958   19.15779
      H    H6542    30.04585    9.01826   18.37947
      O    O6543    24.27440    7.05496   14.73217
      H    H6544    24.38108    7.95533   15.03904
      H    H6545    23.36364    7.00675   14.44163
      O    O6546    33.92632    6.17744   16.20326
      H    H6547    34.74728    5.68709   16.24581
      H    H6548    33.95972    6.76720   16.95644
      O    O6549    21.92272    8.97686   19.97743
      H    H6550    22.60373    9.24069   20.59617
      H    H6551    21.60753    8.13694   20.31123
      O    O6552    38.21627    8.19411   22.76762
      H    H6553    37.51149    8.58228   22.24913
      H    H6554    38.48206    8.88914   23.36971
      O    O6555    24.39879    4.66345   23.33103
      H    H6556    24.40063    5.18069   22.52562
      H    H6557    23.56922    4.18647   23.30802
      O    O6558    30.78590   14.77538   14.83002
      H    H6559    30.16762   15.24032   14.26629
      H    H6560    31.29822   15.46813   15.24697
      O    O6561    34.16246    8.11747   18.97601
      H    H6562    33.45802    8.40596   19.55632
      H    H6563    34.52368    8.92749   18.61597
      O    O6564    24.08032    6.37444   21.33807
      H    H6565    24.42200    7.21865   21.04346
      H    H6566    23.14190    6.52282   21.45461
      O    O6567    20.15422   15.46103   12.20398
      H    H6568    19.77701   15.94974   11.47247
      H    H6569    20.41152   16.13356   12.83463
      O    O6570    35.77874   17.73499   21.23876
      H    H6571    35.09509   18.40490   21.23043
      H    H6572    36.31817   17.93305   20.47325
      O    O6573    37.23116    7.56295   19.36693
      H    H6574    36.28365    7.59685   19.49848
      H    H6575    37.55615    8.37685   19.75187
      O    O6576    27.76311    3.86267   17.66253
      H    H6577    28.07061    3.30736   16.94608
      H    H6578    26.83318    3.99712   17.47983
      O    O6579    33.31462   19.57940   19.95328
      H    H6580    33.32733   19.17563   19.08550
      H    H6581    32.76214   20.35413   19.84942
      O    O6582    34.60916   16.30102   15.04229
      H    H6583    34.49879   15.35846   15.16724
      H    H6584    34.60598   16.66259   15.92857
      O    O6585    32.71316   14.48238   21.28154
      H    H6586    33.13004   14.26840   20.44688
      H    H6587    33.43714   14.73966   21.85240
      O    O6588    30.15119   11.92755   14.39854
      H    H6589    29.22411   11.86129   14.62739
      H    H6590    30.30367   12.86557   14.28407
      O    O6591    30.13809    8.19925   11.39526
      H    H6592    29.19846    8.36065   11.48051
      H    H6593    30.45642    8.91782   10.84886
      O    O6594    36.65937   12.88111   21.37316
      H    H6595    35.83123   12.95042   20.89818
      H    H6596    37.25442   13.46654   20.90475
      O    O6597    34.18091   13.48958   14.90207
      H    H6598    33.56216   13.15154   14.25470
      H    H6599    34.16336   12.84556   15.60999
      O    O6600    33.62357    9.66804   22.31865
      H    H6601    33.21069   10.49341   22.57265
      H    H6602    32.89117    9.08254   22.12629
      O    O6603    34.31358   19.71397   23.00675
      H    H6604    33.83664   20.52119   22.81401
      H    H6605    33.62976   19.06180   23.15937
      O    O6606    32.35738   12.72827   11.90934
      H    H6607    32.79671   11.89051   11.76313
      H    H6608    33.07023   13.36121   11.99576
      O    O6609    30.46692   17.66787   15.87747
      H    H6610    30.90651   18.41031   15.46301
      H    H6611    30.40561   17.91053   16.80136
      O    O6612    35.93910    3.98255   10.22345
      H    H6613    35.62636    4.07523   11.12335
      H    H6614    36.70035    4.56065   10.17319
      O    O6615    22.45731   11.34853   14.68118
      H    H6616    22.33707   12.07474   14.06931
      H    H6617    22.14740   10.57882   14.20397
      O    O6618    37.89350   19.47517   28.07589
      H    H6619    38.36947   19.95345   28.75479
      H    H6620    38.51422   19.40691   27.35044
      O    O6621    20.09585   14.52004   20.48805
      H    H6622    20.17389   14.65492   19.54362
      H    H6623    20.71002   13.81163   20.68086
      O    O6624    21.34061   16.22006   16.89866
      H    H6625    20.93342   16.36152   16.04402
      H    H6626    22.23191   15.93608   16.69578
      O    O6627    37.29683   16.66645   25.23589
      H    H6628    37.42313   16.42764   24.31761
      H    H6629    37.33896   15.83490   25.70810
      O    O6630    31.15850   20.36925   23.80537
      H    H6631    31.67297   20.28005   24.60761
      H    H6632    30.31541   20.71522   24.09816
      O    O6633    33.13394   20.65478   13.23377
      H    H6634    32.97405   20.36508   14.13195
      H    H6635    32.96861   19.87880   12.69829
      O    O6636    32.83655   18.16354   11.79357
      H    H6637    32.14307   18.16127   11.13380
      H    H6638    33.57884   17.73947   11.36299
      O    O6639    32.40155   19.78981   15.86842
      H    H6640    32.85724   19.00875   16.18228
      H    H6641    32.74080   20.50049   16.41254
      O    O6642    37.14923    8.71970   26.20086
      H    H6643    36.53365    9.22766   25.67241
      H    H6644    36.82887    7.81953   26.14346
      O    O6645    20.15180   15.56146   23.02749
      H    H6646    20.31491   15.09199   22.20943
      H    H6647    20.61705   15.05381   23.69238
      O    O6648    24.92368    4.69203   18.06355
      H    H6649    24.48049    5.47299   17.73200
      H    H6650    25.48218    5.01502   18.77064
      O    O6651    29.21066    7.55889   23.66708
      H    H6652    28.74860    7.76719   24.47907
      H    H6653    28.80847    6.74482   23.36415
      O    O6654    34.21111    8.77978   24.79675
      H    H6655    33.36047    8.48036   25.11765
      H    H6656    34.05129    9.02398   23.88513
      O    O6657    31.30608   10.27996   26.89663
      H    H6658    31.63142    9.44633   26.55685
      H    H6659    32.09411   10.80281   27.04446
      O    O6660    28.03956    4.31310   12.94413
      H    H6661    27.41498    4.30909   13.66946
      H    H6662    27.95257    3.44620   12.54773
      O    O6663    26.96127    5.23677   19.92251
      H    H6664    27.25850    6.14305   19.84171
      H    H6665    27.50982    4.74864   19.30847
      O    O6666    31.94488    9.82173   14.39074
      H    H6667    31.34577   10.54531   14.20710
      H    H6668    32.49284    9.75941   13.60838
      O    O6669    30.55136    8.45808   16.42107
      H    H6670    30.94432    8.77530   15.60794
      H    H6671    30.91305    7.57927   16.53552
      O    O6672    22.28608    7.12532   24.61108
      H    H6673    21.89241    7.97284   24.81836
      H    H6674    21.59792    6.48795   24.80194
      O    O6675    28.86058    7.20881   27.68075
      H    H6676    28.17041    7.01603   28.31536
      H    H6677    29.60381    7.49228   28.21318
      O    O6678    19.58778    5.04816   18.64409
      H    H6679    19.29909    5.61845   19.35658
      H    H6680    20.33236    4.56861   19.00721
      O    O6681    31.13688   11.04866   20.51614
      H    H6682    30.40499   11.55734   20.86515
      H    H6683    30.73931   10.23165   20.21502
      O    O6684    27.57462    7.72408   18.92139
      H    H6685    27.57822    7.28307   18.07185
      H    H6686    28.46973    8.04581   19.02858
      O    O6687    23.42485    7.60673   17.88081
      H    H6688    23.08486    8.08425   18.63752
      H    H6689    22.66259    7.15324   17.52092
      O    O6690    27.63663    8.72528   11.91207
      H    H6691    27.75791    8.68393   12.86065
      H    H6692    27.25148    9.58770   11.75674
      O    O6693    31.59947    6.50202   19.92844
      H    H6694    31.61674    6.95289   20.77262
      H    H6695    31.35103    5.60259   20.14178
      O    O6696    35.02654    3.91524   25.76708
      H    H6697    35.35112    3.18421   26.29287
      H    H6698    35.06219    3.59661   24.86518
      O    O6699    21.72570   14.93660   25.18707
      H    H6700    21.34118   14.29597   25.78537
      H    H6701    22.03692   15.64021   25.75655
      O    O6702    34.95233   14.02775   19.37568
      H    H6703    35.67224   14.52328   18.98529
      H    H6704    34.75051   13.34954   18.73107
      O    O6705    30.41332    5.42155   13.51862
      H    H6706    29.59978    4.92287   13.44315
      H    H6707    30.21952    6.26137   13.10225
      O    O6708    30.33421   14.09866   25.26258
      H    H6709    30.26794   13.17823   25.00834
      H    H6710    29.70472   14.19620   25.97704
      O    O6711    33.12816    9.79351   11.81483
      H    H6712    34.01612   10.10524   11.63997
      H    H6713    33.09867    8.92074   11.42289
      O    O6714    29.12422   15.96588   12.49365
      H    H6715    29.46579   16.71011   11.99798
      H    H6716    28.29549   16.27900   12.85613
      O    O6717    21.72172   11.66539   24.13349
      H    H6718    21.36322   12.33078   24.72083
      H    H6719    21.42718   10.83375   24.50475
      O    O6720    30.26588   16.92072   25.01296
      H    H6721    30.28033   15.98881   24.79485
      H    H6722    29.55839   17.00669   25.65194
      O    O6723    35.39959   11.10470   11.28282
      H    H6724    35.31596   11.53612   10.43246
      H    H6725    36.11901   11.56453   11.71550
      O    O6726    36.47700   13.56145   24.35982
      H    H6727    35.75182   14.15433   24.16276
      H    H6728    37.00455   13.55380   23.56115
      O    O6729    36.42831   17.95892   14.01103
      H    H6730    35.78593   17.30449   14.28541
      H    H6731    36.04138   18.36443   13.23510
      O    O6732    32.00696   15.28747   17.85820
      H    H6733    32.35934   14.69028   17.19834
      H    H6734    31.12319   14.96189   18.02903
      O    O6735    29.69927   18.56247   22.10701
      H    H6736    30.34349   18.76841   22.78435
      H    H6737    30.06221   17.80131   21.65409
      O    O6738    23.29719    3.39560   15.35003
      H    H6739    23.16865    3.38739   16.29852
      H    H6740    22.47339    3.73391   14.99913
      O    O6741    30.97248   16.56571   20.82475
      H    H6742    31.61470   15.86502   20.93797
      H    H6743    31.49741   17.34555   20.64444
      O    O6744    34.81805   16.85057   10.54867
      H    H6745    34.59181   16.13361   11.14113
      H    H6746    34.42767   16.60181    9.71084
      O    O6747    32.74624   17.36520   24.02836
      H    H6748    33.08186   17.95187   24.70615
      H    H6749    31.82627   17.23447   24.25814
      O    O6750    20.59965   20.87726   11.32311
      H    H6751    20.95942   21.47619   10.66884
      H    H6752    20.45889   21.42325   12.09662
      O    O6753    20.29658    5.15472   24.81070
      H    H6754    19.58243    5.35441   25.41596
      H    H6755    20.71608    4.37867   25.18218
      O    O6756    34.39968   14.76776   12.21008
      H    H6757    34.11185   15.22903   12.99787
      H    H6758    35.19489   14.30754   12.47851
      O    O6759    28.57510   17.41433   27.19717
      H    H6760    28.25479   16.69526   27.74174
      H    H6761    27.90093   18.08984   27.27077
      O    O6762    22.21718   13.48187   12.88516
      H    H6763    21.60997   14.22176   12.89469
      H    H6764    22.69211   13.57180   12.05898
      O    O6765    31.79046    7.64695   22.56085
      H    H6766    32.15854    6.82647   22.88880
      H    H6767    30.93028    7.70714   22.97641
      O    O6768    35.15666    6.60264   13.36960
      H    H6769    34.52798    6.70721   12.65543
      H    H6770    34.66185    6.82232   14.15899
      O    O6771    29.60248   18.32320   10.80300
      H    H6772    29.70367   18.11960    9.87320
      H    H6773    28.70265   18.06903   11.00778
      O    O6774    27.12506    8.88124   14.78539
      H    H6775    26.41668    9.34987   15.22675
      H    H6776    27.40951    8.22344   15.41991
      O    O6777    28.75066   10.30091   22.78464
      H    H6778    29.24918   10.77549   23.44983
      H    H6779    28.89295    9.37726   22.99165
      O    O6780    31.15661    5.60630   16.22497
      H    H6781    31.03339    5.62492   15.27592
      H    H6782    32.10506    5.65420   16.34481
      O    O6783    25.32857    7.18974   12.16046
      H    H6784    26.17762    7.62676   12.09448
      H    H6785    24.96169    7.50177   12.98767
      O    O6786    35.95734    6.51770   23.62748
      H    H6787    35.45470    7.25824   23.96686
      H    H6788    36.77301    6.90610   23.31116
      O    O6789    34.24954   11.76102   17.07362
      H    H6790    33.30856   11.77604   17.24839
      H    H6791    34.56395   10.97462   17.51965
      O    O6792    22.92238   10.87549   11.31730
      H    H6793    23.00274    9.92824   11.42904
      H    H6794    23.81436   11.20618   11.42337
      O    O6795    36.25210   18.93191   18.74904
      H    H6796    36.37684   19.75502   19.22143
      H    H6797    37.11866   18.72098   18.40146
      O    O6798    20.60840   17.09238   14.29491
      H    H6799    19.68238   17.33450   14.28545
      H    H6800    21.07405   17.91981   14.17338
      O    O6801    22.72968   20.20963   27.60932
      H    H6802    23.53096   20.53084   28.02286
      H    H6803    22.21487   19.84919   28.33131
      O    O6804    31.56615   16.31762   27.55686
      H    H6805    30.95996   16.34078   26.81643
      H    H6806    31.26156   15.58592   28.09358
      O    O6807    32.99618   20.04565   26.16780
      H    H6808    33.94836   19.96145   26.11782
      H    H6809    32.84901   20.70982   26.84118
      O    O6810    35.88710   19.42507   11.66699
      H    H6811    35.60125   19.01158   10.85241
      H    H6812    35.68906   20.35384   11.54704
      O    O6813    20.44946   12.69698   26.55292
      H    H6814    20.95337   12.11771   27.12454
      H    H6815    19.71021   12.98100   27.09056
      O    O6816    30.59210   14.48040   10.71175
      H    H6817    30.04311   14.92733   11.35602
      H    H6818    31.21403   13.97533   11.23552
      O    O6819    34.64559   15.83461   26.64397
      H    H6820    35.38654   16.17219   26.14072
      H    H6821    33.88286   16.00382   26.09095
      O    O6822    22.48177   10.83994   27.44793
      H    H6823    22.52231   10.54133   28.35645
      H    H6824    23.33632   11.24070   27.28868
      O    O6825    28.77238   12.46325    9.85599
      H    H6826    29.29294   11.74816    9.49010
      H    H6827    29.41922   13.10184   10.15604
      O    O6828    33.32016   13.88609   25.17950
      H    H6829    33.73426   14.04060   26.02854
      H    H6830    32.38526   14.01162   25.34207
      O    O6831    33.79238   11.22571   27.18341
      H    H6832    34.37445   10.47094   27.09546
      H    H6833    33.96855   11.75645   26.40656
      O    O6834    24.90958    6.38539   25.49511
      H    H6835    24.81527    5.76746   24.77019
      H    H6836    24.32932    7.11201   25.26810
      O    O6837    27.67573    4.94271   22.52784
      H    H6838    27.22746    4.96514   21.68240
      H    H6839    27.04225    4.54461   23.12487
      O    O6840    30.41807   11.56976   24.53287
      H    H6841    30.53769   10.97387   25.27236
      H    H6842    31.27747   11.60673   24.11300
      O    O6843    32.75686   12.12348   23.10912
      H    H6844    32.23038   12.64774   22.50564
      H    H6845    33.10000   12.75622   23.74010
      O    O6846    27.18495    8.11190   25.79045
      H    H6847    27.77492    7.80348   26.47824
      H    H6848    26.36697    7.63987   25.94644
      O    O6849    32.00429    7.72848   26.02376
      H    H6850    31.31584    7.06663   25.95876
      H    H6851    32.72489    7.28230   26.46860
      O    O6852    32.63433    4.32364   12.08278
      H    H6853    32.91456    3.48043   12.43872
      H    H6854    31.86091    4.55595   12.59666
      O    O6855    23.95378    6.61288    9.54188
      H    H6856    24.25637    6.61962    8.63380
      H    H6857    24.69324    6.26266   10.03865
      O    O6858    28.78865   21.37856   24.52353
      H    H6859    28.71452   22.28208   24.83076
      H    H6860    27.88653   21.05975   24.49573
      O    O6861    27.17227    5.55634   10.52750
      H    H6862    26.82447    4.87874    9.94775
      H    H6863    27.37355    5.09529   11.34184
      O    O6864    29.33718   20.54442   12.14616
      H    H6865    30.23226   20.88291   12.16804
      H    H6866    29.36894   19.82236   11.51859
      O    O6867    22.97679   15.91712   10.37486
      H    H6868    23.41428   16.46009   11.03062
      H    H6869    23.46157   15.09182   10.38450
      O    O6870    20.19137   18.70602   17.82689
      H    H6871    20.52168   17.83813   17.59475
      H    H6872    20.62047   18.91188   18.65738
      O    O6873    20.68040   19.57308   20.56505
      H    H6874    20.24349   19.75316   21.39747
      H    H6875    21.24816   20.33054   20.42322
      O    O6876    36.31661   19.07478   24.85278
      H    H6877    35.71681   19.13404   24.10917
      H    H6878    36.44600   18.13528   24.98247
      O    O6879    37.55676   16.81656   10.18975
      H    H6880    36.72605   16.88423   10.66048
      H    H6881    37.73394   17.70698    9.88644
      O    O6882    37.01240   13.56131   12.69317
      H    H6883    37.77430   14.13098   12.79914
      H    H6884    37.02784   12.99403   13.46400
      O    O6885    38.01840   14.41632   17.53737
      H    H6886    38.38928   13.63305   17.13096
      H    H6887    38.65859   15.10523   17.35910
      O    O6888    35.00178   15.79998   22.95040
      H    H6889    34.18776   16.22970   23.21298
      H    H6890    35.40920   16.41182   22.33730
      O    O6891    37.06432   13.85475    9.85043
      H    H6892    37.33921   14.76264    9.72235
      H    H6893    36.87540   13.79100   10.78662
      O    O6894    33.46188    6.87923   11.14579
      H    H6895    33.88037    6.69233   10.30545
      H    H6896    33.15549    6.02714   11.45608
      O    O6897    36.96086   11.79165   14.84337
      H    H6898    36.58522   11.02444   14.41150
      H    H6899    36.23117   12.17392   15.33086
      O    O6900    21.55043   12.47036   21.46427
      H    H6901    21.91774   12.38310   22.34388
      H    H6902    20.98151   11.70702   21.36496
      O    O6903    36.35082   10.93880   24.47732
      H    H6904    36.11943   10.71008   23.57712
      H    H6905    36.61127   11.85876   24.43181
      O    O6906    21.10203    9.38127   25.37012
      H    H6907    20.20764    9.34795   25.70949
      H    H6908    21.64179    9.57995   26.13524
      O    O6909    34.78962    6.16444   27.25529
      H    H6910    35.66664    6.17278   27.63869
      H    H6911    34.80171    5.42753   26.64453
      O    O6912    36.23595   10.01740   18.14409
      H    H6913    36.75970    9.52366   17.51311
      H    H6914    36.82189   10.15243   18.88885
      O    O6915    36.41492   10.10138   21.66605
      H    H6916    35.46519   10.06774   21.78055
      H    H6917    36.59622   11.01140   21.43102
      O    O6918    22.26937    8.35155   10.77591
      H    H6919    22.97854    7.92987   10.29064
      H    H6920    21.55336    8.41908   10.14425
      O    O6921    21.91678    4.40549    9.81618
      H    H6922    22.63960    4.94638   10.13430
      H    H6923    22.18924    4.13183    8.94033
      O    O6924    35.72595    9.27473   14.08333
      H    H6925    36.22186    9.04182   14.86822
      H    H6926    35.52756    8.43592   13.66710
      O    O6927    21.60600    3.65610   19.71844
      H    H6928    22.25362    3.10584   19.27795
      H    H6929    22.02619    3.91042   20.54002
      O    O6930    37.15466    7.91083   16.61710
      H    H6931    37.04459    7.75643   17.55533
      H    H6932    37.91542    7.38292   16.37464
      O    O6933    35.50124    3.85024   23.07540
      H    H6934    36.13846    4.46365   23.44132
      H    H6935    35.64873    3.88631   22.13032
      O    O6936    38.04369    5.74162    9.85772
      H    H6937    38.96862    5.60974    9.64954
      H    H6938    38.02127    5.82090   10.81136
      O    O6939    38.11754    6.51269   12.48339
      H    H6940    37.32269    6.44720   13.01268
      H    H6941    38.32187    7.44775   12.47192
      O    O6942    35.05938   20.55184   16.47723
      H    H6943    35.65529   20.23030   15.80067
      H    H6944    35.31720   20.07902   17.26855
      O    O6945    21.35920    3.81167   22.46097
      H    H6946    21.01068    4.26805   23.22679
      H    H6947    21.02797    2.91738   22.54321
      O    O6948    22.96564   16.98363   26.62629
      H    H6949    22.92260   16.61292   27.50773
      H    H6950    23.09674   17.92139   26.76647
      O    O6951    28.87168    5.00286   25.98291
      H    H6952    28.81057    5.59504   26.73245
      H    H6953    29.81172    4.89546   25.83794
      O    O6954    31.50914    4.65987   25.62214
      H    H6955    32.12318    4.97779   24.96025
      H    H6956    32.05410    4.17472   26.24173
      O    O6957    37.92666   20.55903   23.02832
      H    H6958    37.43249   20.95592   22.31104
      H    H6959    37.31799   19.93395   23.42205
      O    O6960    22.03127    3.33929   25.73605
      H    H6961    22.57957    3.15810   24.97266
      H    H6962    22.09680    2.54870   26.27168
      O    O6963    22.80444   19.92986   23.74607
      H    H6964    22.21047   19.79833   24.48507
      H    H6965    22.79683   19.09367   23.28028
      O    O6966    32.24994    3.22308   21.94907
      H    H6967    31.37593    3.55659   21.74636
      H    H6968    32.14102    2.75040   22.77426
      O    O6969    33.15714    5.43017   23.33324
      H    H6970    32.82848    4.61534   22.95341
      H    H6971    34.10537    5.38715   23.20981
      O    O6972    35.61060   21.20137   20.30700
      H    H6973    35.15090   21.95295   19.93280
      H    H6974    34.98185   20.48202   20.24848
      O    O6975    22.43567   17.29569   22.69687
      H    H6976    21.70907   16.67622   22.62947
      H    H6977    22.49658   17.68976   21.82668
      O    O6978    28.77973   20.40104   20.30871
      H    H6979    29.06751   20.14647   19.43201
      H    H6980    29.29205   19.84878   20.89927
      O    O6981    29.99743    4.14006   20.88836
      H    H6982    29.21461    4.61461   21.16804
      H    H6983    29.70372    3.23555   20.77968
      O    O6984    34.54953    4.84237   18.93327
      H    H6985    34.99034    4.78688   18.08543
      H    H6986    34.28029    5.75817   19.00429
      O    O6987    36.41339    4.47390   16.94415
      H    H6988    36.35223    3.53002   16.79725
      H    H6989    37.19259    4.58191   17.48950
      O    O6990    20.71867   20.61313   15.90655
      H    H6991    20.55087   19.98020   16.60474
      H    H6992    19.85212   20.81907   15.55597
      O    O6993    27.88285    6.55874   16.39996
      H    H6994    27.07030    6.18443   16.05955
      H    H6995    28.38701    5.80325   16.70208
      O    O6996    32.38535    3.22298   17.63827
      H    H6997    32.98828    3.79500   18.11312
      H    H6998    31.64465    3.78693   17.41566
      O    O6999    35.52881    3.62514   12.91230
      H    H7000    35.72387    4.52348   13.17904
      H    H7001    34.74179    3.39385   13.40559
      O    O7002    22.32494   19.30646   13.35156
      H    H7003    21.79970   19.68726   12.64776
      H    H7004    22.24939   19.93153   14.07253
      O    O7005    23.71398    4.97122   11.94993
      H    H7006    24.24326    4.18420   11.82072
      H    H7007    24.34681    5.65034   12.18348
      O    O7008    25.90777    4.70873   15.00447
      H    H7009    25.27804    4.00746   15.17148
      H    H7010    25.36828    5.46914   14.78778
      O    O7011    28.84696   21.32265   27.67553
      H    H7012    29.77369   21.08708   27.71913
      H    H7013    28.83200   22.14985   27.19413
      O    O7014    37.08147   20.86521   14.67295
      H    H7015    37.25669   20.17898   14.02905
      H    H7016    36.38362   21.38992   14.28062
      O    O7017    26.03332    3.98713   27.43972
      H    H7018    25.75175    4.49049   26.67580
      H    H7019    26.41529    3.18930   27.07393
      O    O7020    32.63487    3.40249   28.01776
      H    H7021    32.52141    3.72195   28.91292
      H    H7022    33.45184    3.80374   27.72149
      O    O7023    35.41472   20.54964   27.49963
      H    H7024    36.20725   20.05456   27.29223
      H    H7025    35.70803   21.22865   28.10719
      O    O7026    -6.00802   30.19608   17.15559
      H    H7027    -6.08861   29.28154   16.88476
      H    H7028    -6.42157   30.69279   16.44956
      O    O7029    -7.87621   31.97399   19.03651
      H    H7030    -8.65200   31.49403   19.32637
      H    H7031    -7.22492   31.29455   18.86213
      O    O7032    -3.85547   36.38000   17.81643
      H    H7033    -4.31732   35.60873   18.14514
      H    H7034    -3.04291   36.40661   18.32167
      O    O7035    -7.62914   38.66581   17.43683
      H    H7036    -8.24799   39.12156   16.86627
      H    H7037    -6.77396   38.82095   17.03580
      O    O7038    -8.43531   34.64970   19.04353
      H    H7039    -8.50449   33.70870   18.88244
      H    H7040    -7.67333   34.73985   19.61579
      O    O7041    -7.40480   27.45674   19.27042
      H    H7042    -7.02831   26.58393   19.15779
      H    H7043    -7.50285   27.79261   18.37947
      O    O7044    -3.62238   24.95179   16.20326
      H    H7045    -2.80142   24.46144   16.24581
      H    H7046    -3.58898   25.54155   16.95644
      O    O7047     0.66757   26.96846   22.76762
      H    H7048    -0.03721   27.35663   22.24913
      H    H7049     0.93336   27.66349   23.36971
      O    O7050    -6.76280   33.54973   14.83002
      H    H7051    -7.38108   34.01467   14.26629
      H    H7052    -6.25048   34.24248   15.24697
      O    O7053    -3.38624   26.89182   18.97601
      H    H7054    -4.09068   27.18031   19.55632
      H    H7055    -3.02502   27.70184   18.61597
      O    O7056    -1.76996   36.50934   21.23876
      H    H7057    -2.45361   37.17925   21.23043
      H    H7058    -1.23053   36.70740   20.47325
      O    O7059    -0.31754   26.33730   19.36693
      H    H7060    -1.26505   26.37120   19.49848
      H    H7061     0.00745   27.15120   19.75187
      O    O7062    -4.23408   38.35375   19.95328
      H    H7063    -4.22137   37.94998   19.08550
      H    H7064    -4.78656   39.12848   19.84942
      O    O7065    -2.93954   35.07537   15.04229
      H    H7066    -3.04991   34.13281   15.16724
      H    H7067    -2.94272   35.43694   15.92857
      O    O7068    -4.83554   33.25673   21.28154
      H    H7069    -4.41866   33.04275   20.44688
      H    H7070    -4.11156   33.51401   21.85240
      O    O7071    -7.39751   30.70190   14.39854
      H    H7072    -8.32459   30.63564   14.62739
      H    H7073    -7.24503   31.63992   14.28407
      O    O7074    -7.41061   26.97360   11.39526
      H    H7075    -8.35024   27.13500   11.48051
      H    H7076    -7.09228   27.69217   10.84886
      O    O7077    -0.88933   31.65546   21.37316
      H    H7078    -1.71747   31.72477   20.89818
      H    H7079    -0.29428   32.24089   20.90475
      O    O7080    -3.36779   32.26393   14.90207
      H    H7081    -3.98654   31.92589   14.25470
      H    H7082    -3.38534   31.61991   15.60999
      O    O7083    -3.92513   28.44239   22.31865
      H    H7084    -4.33801   29.26776   22.57265
      H    H7085    -4.65753   27.85689   22.12629
      O    O7086    -3.23512   38.48832   23.00675
      H    H7087    -3.71206   39.29554   22.81401
      H    H7088    -3.91894   37.83615   23.15937
      O    O7089    -5.19132   31.50262   11.90934
      H    H7090    -4.75199   30.66486   11.76313
      H    H7091    -4.47847   32.13556   11.99576
      O    O7092    -7.08178   36.44222   15.87747
      H    H7093    -6.64219   37.18466   15.46301
      H    H7094    -7.14309   36.68488   16.80136
      O    O7095    -1.60960   22.75690   10.22345
      H    H7096    -1.92234   22.84958   11.12335
      H    H7097    -0.84835   23.33500   10.17319
      O    O7098     0.34480   38.24952   28.07589
      H    H7099     0.82077   38.72780   28.75479
      H    H7100     0.96552   38.18126   27.35044
      O    O7101    -0.25187   35.44080   25.23589
      H    H7102    -0.12557   35.20199   24.31761
      H    H7103    -0.20974   34.60925   25.70810
      O    O7104    -6.39020   39.14360   23.80537
      H    H7105    -5.87573   39.05440   24.60761
      H    H7106    -7.23329   39.48957   24.09816
      O    O7107    -4.41476   39.42913   13.23377
      H    H7108    -4.57465   39.13943   14.13195
      H    H7109    -4.58009   38.65315   12.69829
      O    O7110    -4.71215   36.93789   11.79357
      H    H7111    -5.40563   36.93562   11.13380
      H    H7112    -3.96986   36.51382   11.36299
      O    O7113    -5.14715   38.56416   15.86842
      H    H7114    -4.69146   37.78310   16.18228
      H    H7115    -4.80790   39.27484   16.41254
      O    O7116    -0.39947   27.49405   26.20086
      H    H7117    -1.01505   28.00201   25.67241
      H    H7118    -0.71983   26.59388   26.14346
      O    O7119    -8.33804   26.33324   23.66708
      H    H7120    -8.80010   26.54154   24.47907
      H    H7121    -8.74023   25.51917   23.36415
      O    O7122    -3.33759   27.55413   24.79675
      H    H7123    -4.18823   27.25471   25.11765
      H    H7124    -3.49741   27.79833   23.88513
      O    O7125    -6.24262   29.05431   26.89663
      H    H7126    -5.91728   28.22068   26.55685
      H    H7127    -5.45459   29.57716   27.04446
      O    O7128    -5.60382   28.59608   14.39074
      H    H7129    -6.20293   29.31966   14.20710
      H    H7130    -5.05586   28.53376   13.60838
      O    O7131    -6.99734   27.23243   16.42107
      H    H7132    -6.60438   27.54965   15.60794
      H    H7133    -6.63565   26.35362   16.53552
      O    O7134    -8.68812   25.98316   27.68075
      H    H7135    -9.37829   25.79038   28.31536
      H    H7136    -7.94489   26.26663   28.21318
      O    O7137    -6.41182   29.82301   20.51614
      H    H7138    -7.14371   30.33169   20.86515
      H    H7139    -6.80939   29.00600   20.21502
      O    O7140    -5.94923   25.27637   19.92844
      H    H7141    -5.93196   25.72724   20.77262
      H    H7142    -6.19767   24.37694   20.14178
      O    O7143    -2.52216   22.68959   25.76708
      H    H7144    -2.19758   21.95856   26.29287
      H    H7145    -2.48651   22.37096   24.86518
      O    O7146    -2.59637   32.80210   19.37568
      H    H7147    -1.87646   33.29763   18.98529
      H    H7148    -2.79819   32.12389   18.73107
      O    O7149    -7.13538   24.19590   13.51862
      H    H7150    -7.94892   23.69722   13.44315
      H    H7151    -7.32918   25.03572   13.10225
      O    O7152    -7.21449   32.87301   25.26258
      H    H7153    -7.28076   31.95258   25.00834
      H    H7154    -7.84398   32.97055   25.97704
      O    O7155    -4.42054   28.56786   11.81483
      H    H7156    -3.53258   28.87959   11.63997
      H    H7157    -4.45003   27.69509   11.42289
      O    O7158    -8.42448   34.74023   12.49365
      H    H7159    -8.08291   35.48446   11.99798
      H    H7160    -9.25321   35.05335   12.85613
      O    O7161    -7.28282   35.69507   25.01296
      H    H7162    -7.26837   34.76316   24.79485
      H    H7163    -7.99031   35.78104   25.65194
      O    O7164    -2.14911   29.87905   11.28282
      H    H7165    -2.23274   30.31047   10.43246
      H    H7166    -1.42969   30.33888   11.71550
      O    O7167    -1.07170   32.33580   24.35982
      H    H7168    -1.79688   32.92868   24.16276
      H    H7169    -0.54415   32.32815   23.56115
      O    O7170    -1.12039   36.73327   14.01103
      H    H7171    -1.76277   36.07884   14.28541
      H    H7172    -1.50732   37.13878   13.23510
      O    O7173    -5.54174   34.06182   17.85820
      H    H7174    -5.18936   33.46463   17.19834
      H    H7175    -6.42551   33.73624   18.02903
      O    O7176    -7.84943   37.33682   22.10701
      H    H7177    -7.20521   37.54276   22.78435
      H    H7178    -7.48649   36.57566   21.65409
      O    O7179    -6.57622   35.34006   20.82475
      H    H7180    -5.93400   34.63937   20.93797
      H    H7181    -6.05129   36.11990   20.64444
      O    O7182    -2.73065   35.62492   10.54867
      H    H7183    -2.95689   34.90796   11.14113
      H    H7184    -3.12103   35.37616    9.71084
      O    O7185    -4.80246   36.13955   24.02836
      H    H7186    -4.46684   36.72622   24.70615
      H    H7187    -5.72243   36.00882   24.25814
      O    O7188    -3.14902   33.54211   12.21008
      H    H7189    -3.43685   34.00338   12.99787
      H    H7190    -2.35381   33.08189   12.47851
      O    O7191    -5.75824   26.42130   22.56085
      H    H7192    -5.39016   25.60082   22.88880
      H    H7193    -6.61842   26.48149   22.97641
      O    O7194    -2.39204   25.37699   13.36960
      H    H7195    -3.02072   25.48156   12.65543
      H    H7196    -2.88685   25.59667   14.15899
      O    O7197    -7.94622   37.09755   10.80300
      H    H7198    -7.84503   36.89395    9.87320
      H    H7199    -8.84605   36.84338   11.00778
      O    O7200    -8.79804   29.07526   22.78464
      H    H7201    -8.29952   29.54984   23.44983
      H    H7202    -8.65575   28.15161   22.99165
      O    O7203    -6.39209   24.38065   16.22497
      H    H7204    -6.51531   24.39927   15.27592
      H    H7205    -5.44364   24.42855   16.34481
      O    O7206    -1.59136   25.29205   23.62748
      H    H7207    -2.09400   26.03259   23.96686
      H    H7208    -0.77569   25.68045   23.31116
      O    O7209    -3.29916   30.53537   17.07362
      H    H7210    -4.24014   30.55039   17.24839
      H    H7211    -2.98475   29.74897   17.51965
      O    O7212    -1.29660   37.70626   18.74904
      H    H7213    -1.17186   38.52937   19.22143
      H    H7214    -0.43004   37.49533   18.40146
      O    O7215    -5.98255   35.09197   27.55686
      H    H7216    -6.58874   35.11513   26.81643
      H    H7217    -6.28714   34.36027   28.09358
      O    O7218    -4.55252   38.82000   26.16780
      H    H7219    -3.60034   38.73580   26.11782
      H    H7220    -4.69969   39.48417   26.84118
      O    O7221    -1.66160   38.19942   11.66699
      H    H7222    -1.94745   37.78593   10.85241
      H    H7223    -1.85964   39.12819   11.54704
      O    O7224    -6.95660   33.25475   10.71175
      H    H7225    -7.50559   33.70168   11.35602
      H    H7226    -6.33467   32.74968   11.23552
      O    O7227    -2.90311   34.60896   26.64397
      H    H7228    -2.16216   34.94654   26.14072
      H    H7229    -3.66584   34.77817   26.09095
      O    O7230    -8.77632   31.23760    9.85599
      H    H7231    -8.25576   30.52251    9.49010
      H    H7232    -8.12948   31.87619   10.15604
      O    O7233    -4.22854   32.66044   25.17950
      H    H7234    -3.81444   32.81495   26.02854
      H    H7235    -5.16344   32.78597   25.34207
      O    O7236    -3.75632   30.00006   27.18341
      H    H7237    -3.17425   29.24529   27.09546
      H    H7238    -3.58015   30.53080   26.40656
      O    O7239    -7.13063   30.34411   24.53287
      H    H7240    -7.01101   29.74822   25.27236
      H    H7241    -6.27123   30.38108   24.11300
      O    O7242    -4.79184   30.89783   23.10912
      H    H7243    -5.31832   31.42209   22.50564
      H    H7244    -4.44870   31.53057   23.74010
      O    O7245    -5.54441   26.50283   26.02376
      H    H7246    -6.23286   25.84098   25.95876
      H    H7247    -4.82381   26.05665   26.46860
      O    O7248    -4.91437   23.09799   12.08278
      H    H7249    -4.63414   22.25478   12.43872
      H    H7250    -5.68779   23.33030   12.59666
      O    O7251    -8.76005   40.15291   24.52353
      H    H7252    -8.83418   41.05643   24.83076
      H    H7253    -9.66217   39.83410   24.49573
      O    O7254    -8.21152   39.31877   12.14616
      H    H7255    -7.31644   39.65726   12.16804
      H    H7256    -8.17976   38.59671   11.51859
      O    O7257    -1.23209   37.84913   24.85278
      H    H7258    -1.83189   37.90839   24.10917
      H    H7259    -1.10270   36.90963   24.98247
      O    O7260     0.00806   35.59091   10.18975
      H    H7261    -0.82265   35.65858   10.66048
      H    H7262     0.18524   36.48133    9.88644
      O    O7263    -0.53630   32.33566   12.69317
      H    H7264     0.22560   32.90533   12.79914
      H    H7265    -0.52086   31.76838   13.46400
      O    O7266     0.46970   33.19067   17.53737
      H    H7267     0.84058   32.40740   17.13096
      H    H7268     1.10989   33.87958   17.35910
      O    O7269    -2.54692   34.57433   22.95040
      H    H7270    -3.36094   35.00405   23.21298
      H    H7271    -2.13950   35.18617   22.33730
      O    O7272    -0.48438   32.62910    9.85043
      H    H7273    -0.20949   33.53699    9.72235
      H    H7274    -0.67330   32.56535   10.78662
      O    O7275    -4.08682   25.65358   11.14579
      H    H7276    -3.66833   25.46668   10.30545
      H    H7277    -4.39321   24.80149   11.45608
      O    O7278    -0.58784   30.56600   14.84337
      H    H7279    -0.96348   29.79879   14.41150
      H    H7280    -1.31753   30.94827   15.33086
      O    O7281    -1.19788   29.71315   24.47732
      H    H7282    -1.42927   29.48443   23.57712
      H    H7283    -0.93743   30.63311   24.43181
      O    O7284    -2.75908   24.93879   27.25529
      H    H7285    -1.88206   24.94713   27.63869
      H    H7286    -2.74699   24.20188   26.64453
      O    O7287    -1.31275   28.79175   18.14409
      H    H7288    -0.78900   28.29801   17.51311
      H    H7289    -0.72681   28.92678   18.88885
      O    O7290    -1.13378   28.87573   21.66605
      H    H7291    -2.08351   28.84209   21.78055
      H    H7292    -0.95248   29.78575   21.43102
      O    O7293    -1.82275   28.04908   14.08333
      H    H7294    -1.32684   27.81617   14.86822
      H    H7295    -2.02114   27.21027   13.66710
      O    O7296    -0.39404   26.68518   16.61710
      H    H7297    -0.50411   26.53078   17.55533
      H    H7298     0.36672   26.15727   16.37464
      O    O7299    -2.04746   22.62459   23.07540
      H    H7300    -1.41024   23.23800   23.44132
      H    H7301    -1.89997   22.66066   22.13032
      O    O7302     0.49499   24.51597    9.85772
      H    H7303     1.41992   24.38409    9.64954
      H    H7304     0.47257   24.59525   10.81136
      O    O7305     0.56884   25.28704   12.48339
      H    H7306    -0.22601   25.22155   13.01268
      H    H7307     0.77317   26.22210   12.47192
      O    O7308    -2.48932   39.32619   16.47723
      H    H7309    -1.89341   39.00465   15.80067
      H    H7310    -2.23150   38.85337   17.26855
      O    O7311    -8.67702   23.77721   25.98291
      H    H7312    -8.73813   24.36939   26.73245
      H    H7313    -7.73698   23.66981   25.83794
      O    O7314    -6.03956   23.43422   25.62214
      H    H7315    -5.42552   23.75214   24.96025
      H    H7316    -5.49460   22.94907   26.24173
      O    O7317     0.37796   39.33338   23.02832
      H    H7318    -0.11621   39.73027   22.31104
      H    H7319    -0.23071   38.70830   23.42205
      O    O7320    -5.29876   21.99743   21.94907
      H    H7321    -6.17277   22.33094   21.74636
      H    H7322    -5.40768   21.52475   22.77426
      O    O7323    -4.39156   24.20452   23.33324
      H    H7324    -4.72022   23.38969   22.95341
      H    H7325    -3.44333   24.16150   23.20981
      O    O7326    -1.93810   39.97572   20.30700
      H    H7327    -2.39780   40.72730   19.93280
      H    H7328    -2.56685   39.25637   20.24848
      O    O7329    -8.76897   39.17539   20.30871
      H    H7330    -8.48119   38.92082   19.43201
      H    H7331    -8.25665   38.62313   20.89927
      O    O7332    -7.55127   22.91441   20.88836
      H    H7333    -8.33409   23.38896   21.16804
      H    H7334    -7.84498   22.00990   20.77968
      O    O7335    -2.99917   23.61672   18.93327
      H    H7336    -2.55836   23.56123   18.08543
      H    H7337    -3.26841   24.53252   19.00429
      O    O7338    -1.13531   23.24825   16.94415
      H    H7339    -1.19647   22.30437   16.79725
      H    H7340    -0.35611   23.35626   17.48950
      O    O7341    -5.16335   21.99733   17.63827
      H    H7342    -4.56042   22.56935   18.11312
      H    H7343    -5.90405   22.56128   17.41566
      O    O7344    -2.01989   22.39949   12.91230
      H    H7345    -1.82483   23.29783   13.17904
      H    H7346    -2.80691   22.16820   13.40559
      O    O7347    -8.70174   40.09700   27.67553
      H    H7348    -7.77501   39.86143   27.71913
      H    H7349    -8.71670   40.92420   27.19413
      O    O7350    -0.46723   39.63956   14.67295
      H    H7351    -0.29201   38.95333   14.02905
      H    H7352    -1.16508   40.16427   14.28062
      O    O7353    -4.91383   22.17684   28.01776
      H    H7354    -5.02729   22.49630   28.91292
      H    H7355    -4.09686   22.57809   27.72149
      O    O7356    -2.13398   39.32399   27.49963
      H    H7357    -1.34145   38.82891   27.29223
      H    H7358    -1.84067   40.00300   28.10719
      O    O7359    12.76633   30.19608   17.15559
      H    H7360    12.68574   29.28154   16.88476
      H    H7361    12.35278   30.69279   16.44956
      O    O7362    10.89814   31.97399   19.03651
      H    H7363    10.12235   31.49403   19.32637
      H    H7364    11.54943   31.29455   18.86213
      O    O7365     4.91472   32.28597   19.91409
      H    H7366     4.08321   32.03084   20.31374
      H    H7367     5.52282   32.35704   20.64988
      O    O7368    14.91888   36.38000   17.81643
      H    H7369    14.45703   35.60873   18.14514
      H    H7370    15.73144   36.40661   18.32167
      O    O7371     4.89485   36.31998   20.10989
      H    H7372     5.19765   35.42975   19.93091
      H    H7373     5.63921   36.87700   19.88212
      O    O7374     3.32392   27.24616   13.69833
      H    H7375     2.43559   27.58775   13.59632
      H    H7376     3.60803   27.04619   12.80641
      O    O7377     1.28722   29.84672   19.58230
      H    H7378     1.85883   29.07894   19.58266
      H    H7379     1.28737   30.14560   18.67296
      O    O7380    11.14521   38.66581   17.43683
      H    H7381    10.52636   39.12156   16.86627
      H    H7382    12.00039   38.82095   17.03580
      O    O7383    10.33904   34.64970   19.04353
      H    H7384    10.26986   33.70870   18.88244
      H    H7385    11.10102   34.73985   19.61579
      O    O7386     2.52970   25.25516   21.36919
      H    H7387     2.34999   24.35773   21.64947
      H    H7388     2.12771   25.80234   22.04389
      O    O7389    11.36955   27.45674   19.27042
      H    H7390    11.74604   26.58393   19.15779
      H    H7391    11.27150   27.79261   18.37947
      O    O7392     5.50005   25.82931   14.73217
      H    H7393     5.60673   26.72968   15.03904
      H    H7394     4.58929   25.78110   14.44163
      O    O7395    15.15197   24.95179   16.20326
      H    H7396    15.97293   24.46144   16.24581
      H    H7397    15.18537   25.54155   16.95644
      O    O7398     3.14837   27.75121   19.97743
      H    H7399     3.82938   28.01504   20.59617
      H    H7400     2.83318   26.91129   20.31123
      O    O7401     7.34083   28.79794   19.06469
      H    H7402     7.84865   29.29604   19.70519
      H    H7403     7.87215   28.02146   18.88862
      O    O7404    19.44192   26.96846   22.76762
      H    H7405    18.73714   27.35663   22.24913
      H    H7406    19.70771   27.66349   23.36971
      O    O7407     5.62444   23.43780   23.33103
      H    H7408     5.62628   23.95504   22.52562
      H    H7409     4.79487   22.96082   23.30802
      O    O7410    12.01155   33.54973   14.83002
      H    H7411    11.39327   34.01467   14.26629
      H    H7412    12.52387   34.24248   15.24697
      O    O7413     6.87472   33.07732   21.50838
      H    H7414     6.54166   33.70421   22.15048
      H    H7415     7.05139   33.60350   20.72854
      O    O7416    15.38811   26.89182   18.97601
      H    H7417    14.68367   27.18031   19.55632
      H    H7418    15.74933   27.70184   18.61597
      O    O7419     5.30597   25.14879   21.33807
      H    H7420     5.64765   25.99300   21.04346
      H    H7421     4.36755   25.29717   21.45461
      O    O7422     6.08663   35.04540   23.32330
      H    H7423     6.70403   35.72050   23.04174
      H    H7424     5.22594   35.45419   23.23205
      O    O7425     1.37987   34.23538   12.20398
      H    H7426     1.00266   34.72409   11.47247
      H    H7427     1.63717   34.90791   12.83463
      O    O7428    17.00439   36.50934   21.23876
      H    H7429    16.32074   37.17925   21.23043
      H    H7430    17.54382   36.70740   20.47325
      O    O7431    18.45681   26.33730   19.36693
      H    H7432    17.50930   26.37120   19.49848
      H    H7433    18.78180   27.15120   19.75187
      O    O7434     8.98876   22.63702   17.66253
      H    H7435     9.29626   22.08171   16.94608
      H    H7436     8.05883   22.77147   17.47983
      O    O7437    14.54027   38.35375   19.95328
      H    H7438    14.55298   37.94998   19.08550
      H    H7439    13.98779   39.12848   19.84942
      O    O7440    15.83481   35.07537   15.04229
      H    H7441    15.72444   34.13281   15.16724
      H    H7442    15.83163   35.43694   15.92857
      O    O7443    13.93881   33.25673   21.28154
      H    H7444    14.35569   33.04275   20.44688
      H    H7445    14.66279   33.51401   21.85240
      O    O7446    11.37684   30.70190   14.39854
      H    H7447    10.44976   30.63564   14.62739
      H    H7448    11.52932   31.63992   14.28407
      O    O7449    11.36374   26.97360   11.39526
      H    H7450    10.42411   27.13500   11.48051
      H    H7451    11.68207   27.69217   10.84886
      O    O7452    17.88502   31.65546   21.37316
      H    H7453    17.05688   31.72477   20.89818
      H    H7454    18.48007   32.24089   20.90475
      O    O7455    15.40656   32.26393   14.90207
      H    H7456    14.78781   31.92589   14.25470
      H    H7457    15.38901   31.61991   15.60999
      O    O7458    14.84922   28.44239   22.31865
      H    H7459    14.43634   29.26776   22.57265
      H    H7460    14.11682   27.85689   22.12629
      O    O7461     6.98250   31.22838   17.18052
      H    H7462     6.57820   30.51610   16.68511
      H    H7463     7.06881   30.88370   18.06932
      O    O7464     7.45067   34.91513   19.34444
      H    H7465     7.15350   34.30968   18.66522
      H    H7466     8.40065   34.95287   19.23337
      O    O7467     5.69536   28.00270   20.96042
      H    H7468     6.24682   28.11223   20.18575
      H    H7469     6.20971   28.37646   21.67594
      O    O7470    15.53923   38.48832   23.00675
      H    H7471    15.06229   39.29554   22.81401
      H    H7472    14.85541   37.83615   23.15937
      O    O7473     6.54251   34.65330   25.99522
      H    H7474     5.64537   34.87730   26.24256
      H    H7475     6.56780   34.77680   25.04636
      O    O7476    13.58303   31.50262   11.90934
      H    H7477    14.02236   30.66486   11.76313
      H    H7478    14.29588   32.13556   11.99576
      O    O7479     5.36963   31.52464   24.57095
      H    H7480     5.23041   32.39692   24.93969
      H    H7481     4.48777   31.18192   24.42575
      O    O7482    11.69257   36.44222   15.87747
      H    H7483    12.13216   37.18466   15.46301
      H    H7484    11.63126   36.68488   16.80136
      O    O7485     7.16767   37.46681   26.77947
      H    H7486     7.13921   37.87110   25.91231
      H    H7487     7.00417   36.53784   26.61663
      O    O7488    17.16475   22.75690   10.22345
      H    H7489    16.85201   22.84958   11.12335
      H    H7490    17.92600   23.33500   10.17319
      O    O7491     3.68296   30.12288   14.68118
      H    H7492     3.56272   30.84909   14.06931
      H    H7493     3.37305   29.35317   14.20397
      O    O7494    19.11915   38.24952   28.07589
      H    H7495    19.59512   38.72780   28.75479
      H    H7496    19.73987   38.18126   27.35044
      O    O7497     1.32150   33.29439   20.48805
      H    H7498     1.39954   33.42927   19.54362
      H    H7499     1.93567   32.58598   20.68086
      O    O7500     2.56626   34.99441   16.89866
      H    H7501     2.15907   35.13587   16.04402
      H    H7502     3.45756   34.71043   16.69578
      O    O7503    18.52248   35.44080   25.23589
      H    H7504    18.64878   35.20199   24.31761
      H    H7505    18.56461   34.60925   25.70810
      O    O7506    12.38415   39.14360   23.80537
      H    H7507    12.89862   39.05440   24.60761
      H    H7508    11.54106   39.48957   24.09816
      O    O7509    14.35959   39.42913   13.23377
      H    H7510    14.19970   39.13943   14.13195
      H    H7511    14.19426   38.65315   12.69829
      O    O7512     6.83843   39.20899   15.01093
      H    H7513     6.66268   38.29254   14.79771
      H    H7514     5.98400   39.56772   15.25071
      O    O7515    14.06220   36.93789   11.79357
      H    H7516    13.36872   36.93562   11.13380
      H    H7517    14.80449   36.51382   11.36299
      O    O7518    13.62720   38.56416   15.86842
      H    H7519    14.08289   37.78310   16.18228
      H    H7520    13.96645   39.27484   16.41254
      O    O7521    18.37488   27.49405   26.20086
      H    H7522    17.75930   28.00201   25.67241
      H    H7523    18.05452   26.59388   26.14346
      O    O7524     1.37745   34.33581   23.02749
      H    H7525     1.54056   33.86634   22.20943
      H    H7526     1.84270   33.82816   23.69238
      O    O7527     6.14933   23.46638   18.06355
      H    H7528     5.70614   24.24734   17.73200
      H    H7529     6.70783   23.78937   18.77064
      O    O7530    10.43631   26.33324   23.66708
      H    H7531     9.97425   26.54154   24.47907
      H    H7532    10.03412   25.51917   23.36415
      O    O7533    15.43676   27.55413   24.79675
      H    H7534    14.58612   27.25471   25.11765
      H    H7535    15.27694   27.79833   23.88513
      O    O7536    12.53173   29.05431   26.89663
      H    H7537    12.85707   28.22068   26.55685
      H    H7538    13.31976   29.57716   27.04446
      O    O7539     9.26521   23.08745   12.94413
      H    H7540     8.64063   23.08344   13.66946
      H    H7541     9.17822   22.22055   12.54773
      O    O7542     8.18692   24.01112   19.92251
      H    H7543     8.48415   24.91740   19.84171
      H    H7544     8.73547   23.52299   19.30847
      O    O7545     5.94075   28.58974   15.79167
      H    H7546     5.71484   28.37346   16.69634
      H    H7547     5.16000   29.02259   15.44627
      O    O7548    13.17053   28.59608   14.39074
      H    H7549    12.57142   29.31966   14.20710
      H    H7550    13.71849   28.53376   13.60838
      O    O7551     8.38067   29.48830   26.45770
      H    H7552     8.28503   28.54777   26.30774
      H    H7553     9.22387   29.70981   26.06251
      O    O7554    11.77701   27.23243   16.42107
      H    H7555    12.16997   27.54965   15.60794
      H    H7556    12.13870   26.35362   16.53552
      O    O7557     3.51173   25.89967   24.61108
      H    H7558     3.11806   26.74719   24.81836
      H    H7559     2.82357   25.26230   24.80194
      O    O7560    10.08623   25.98316   27.68075
      H    H7561     9.39606   25.79038   28.31536
      H    H7562    10.82946   26.26663   28.21318
      O    O7563     0.81343   23.82251   18.64409
      H    H7564     0.52474   24.39280   19.35658
      H    H7565     1.55801   23.34296   19.00721
      O    O7566     1.00045   27.76452    9.85436
      H    H7567     0.91792   28.70760    9.99586
      H    H7568     0.64876   27.62201    8.97559
      O    O7569    12.36253   29.82301   20.51614
      H    H7570    11.63064   30.33169   20.86515
      H    H7571    11.96496   29.00600   20.21502
      O    O7572     8.80027   26.49843   18.92139
      H    H7573     8.80387   26.05742   18.07185
      H    H7574     9.69538   26.82016   19.02858
      O    O7575     4.65050   26.38108   17.88081
      H    H7576     4.31051   26.85860   18.63752
      H    H7577     3.88824   25.92759   17.52092
      O    O7578     8.86228   27.49963   11.91207
      H    H7579     8.98356   27.45828   12.86065
      H    H7580     8.47713   28.36205   11.75674
      O    O7581    12.82512   25.27637   19.92844
      H    H7582    12.84239   25.72724   20.77262
      H    H7583    12.57668   24.37694   20.14178
      O    O7584     7.87443   29.80975   11.31040
      H    H7585     7.30612   29.36157   10.68399
      H    H7586     8.58333   30.16903   10.77691
      O    O7587    16.25219   22.68959   25.76708
      H    H7588    16.57677   21.95856   26.29287
      H    H7589    16.28784   22.37096   24.86518
      O    O7590     2.95135   33.71095   25.18707
      H    H7591     2.56683   33.07032   25.78537
      H    H7592     3.26257   34.41456   25.75655
      O    O7593     9.10106   30.55860   20.66793
      H    H7594     9.46808   30.08446   21.41407
      H    H7595     8.91157   31.43276   21.00877
      O    O7596     1.96511   25.30297   16.79728
      H    H7597     1.67980   24.93854   17.63514
      H    H7598     1.90300   24.57102   16.18360
      O    O7599     6.89100   29.59947   22.98636
      H    H7600     6.58671   30.47867   23.21139
      H    H7601     7.84565   29.65945   23.02210
      O    O7602     5.41918   33.80557   13.58304
      H    H7603     4.64541   33.26533   13.42291
      H    H7604     6.14864   33.28623   13.24482
      O    O7605    16.17798   32.80210   19.37568
      H    H7606    16.89789   33.29763   18.98529
      H    H7607    15.97616   32.12389   18.73107
      O    O7608    11.63897   24.19590   13.51862
      H    H7609    10.82543   23.69722   13.44315
      H    H7610    11.44517   25.03572   13.10225
      O    O7611    11.55986   32.87301   25.26258
      H    H7612    11.49359   31.95258   25.00834
      H    H7613    10.93037   32.97055   25.97704
      O    O7614    14.35381   28.56786   11.81483
      H    H7615    15.24177   28.87959   11.63997
      H    H7616    14.32432   27.69509   11.42289
      O    O7617     5.46292   33.47361   17.22092
      H    H7618     5.98079   32.67043   17.16661
      H    H7619     5.01132   33.41152   18.06260
      O    O7620    10.34987   34.74023   12.49365
      H    H7621    10.69144   35.48446   11.99798
      H    H7622     9.52114   35.05335   12.85613
      O    O7623     2.94737   30.43974   24.13349
      H    H7624     2.58887   31.10513   24.72083
      H    H7625     2.65283   29.60810   24.50475
      O    O7626     6.14869   30.89817   27.01745
      H    H7627     5.84870   31.04388   26.12023
      H    H7628     6.91981   30.33870   26.92479
      O    O7629    11.49153   35.69507   25.01296
      H    H7630    11.50598   34.76316   24.79485
      H    H7631    10.78404   35.78104   25.65194
      O    O7632    16.62524   29.87905   11.28282
      H    H7633    16.54161   30.31047   10.43246
      H    H7634    17.34466   30.33888   11.71550
      O    O7635    17.70265   32.33580   24.35982
      H    H7636    16.97747   32.92868   24.16276
      H    H7637    18.23020   32.32815   23.56115
      O    O7638    17.65396   36.73327   14.01103
      H    H7639    17.01158   36.07884   14.28541
      H    H7640    17.26703   37.13878   13.23510
      O    O7641    13.23261   34.06182   17.85820
      H    H7642    13.58499   33.46463   17.19834
      H    H7643    12.34884   33.73624   18.02903
      O    O7644     9.31894   34.82159   15.26524
      H    H7645    10.00605   35.36851   15.64600
      H    H7646     8.53218   35.36566   15.30020
      O    O7647     1.45818   30.43887   10.75695
      H    H7648     2.32766   30.72135   11.04054
      H    H7649     0.96721   31.25246   10.64183
      O    O7650     8.62166   31.82619   14.87778
      H    H7651     9.07794   32.63671   15.10380
      H    H7652     8.27048   31.50850   15.70963
      O    O7653    10.92492   37.33682   22.10701
      H    H7654    11.56914   37.54276   22.78435
      H    H7655    11.28786   36.57566   21.65409
      O    O7656     4.52284   22.16995   15.35003
      H    H7657     4.39430   22.16174   16.29852
      H    H7658     3.69904   22.50826   14.99913
      O    O7659    12.19813   35.34006   20.82475
      H    H7660    12.84035   34.63937   20.93797
      H    H7661    12.72306   36.11990   20.64444
      O    O7662    16.04370   35.62492   10.54867
      H    H7663    15.81746   34.90796   11.14113
      H    H7664    15.65332   35.37616    9.71084
      O    O7665    13.97189   36.13955   24.02836
      H    H7666    14.30751   36.72622   24.70615
      H    H7667    13.05192   36.00882   24.25814
      O    O7668     1.82530   39.65161   11.32311
      H    H7669     2.18507   40.25054   10.66884
      H    H7670     1.68454   40.19760   12.09662
      O    O7671     1.52223   23.92907   24.81070
      H    H7672     0.80808   24.12876   25.41596
      H    H7673     1.94173   23.15302   25.18218
      O    O7674    15.62533   33.54211   12.21008
      H    H7675    15.33750   34.00338   12.99787
      H    H7676    16.42054   33.08189   12.47851
      O    O7677     1.80949   37.91709   25.79735
      H    H7678     1.91860   36.97657   25.65689
      H    H7679     1.15755   38.18257   25.14873
      O    O7680     9.80075   36.18868   27.19717
      H    H7681     9.48044   35.46961   27.74174
      H    H7682     9.12658   36.86419   27.27077
      O    O7683     7.84217   37.03473   12.14048
      H    H7684     7.83318   37.76770   11.52493
      H    H7685     6.92200   36.78788   12.23318
      O    O7686     3.44283   32.25622   12.88516
      H    H7687     2.83562   32.99611   12.89469
      H    H7688     3.91776   32.34615   12.05898
      O    O7689    13.01611   26.42130   22.56085
      H    H7690    13.38419   25.60082   22.88880
      H    H7691    12.15593   26.48149   22.97641
      O    O7692    16.38231   25.37699   13.36960
      H    H7693    15.75363   25.48156   12.65543
      H    H7694    15.88750   25.59667   14.15899
      O    O7695    10.82813   37.09755   10.80300
      H    H7696    10.92932   36.89395    9.87320
      H    H7697     9.92830   36.84338   11.00778
      O    O7698     8.35071   27.65559   14.78539
      H    H7699     7.64233   28.12422   15.22675
      H    H7700     8.63516   26.99779   15.41991
      O    O7701     9.97631   29.07526   22.78464
      H    H7702    10.47483   29.54984   23.44983
      H    H7703    10.11860   28.15161   22.99165
      O    O7704    12.38226   24.38065   16.22497
      H    H7705    12.25904   24.39927   15.27592
      H    H7706    13.33071   24.42855   16.34481
      O    O7707     9.46994   39.61618   15.49777
      H    H7708     9.72409   39.57832   14.57570
      H    H7709     8.52118   39.48952   15.49059
      O    O7710     6.55422   25.96409   12.16046
      H    H7711     7.40327   26.40111   12.09448
      H    H7712     6.18734   26.27612   12.98767
      O    O7713    17.18299   25.29205   23.62748
      H    H7714    16.68035   26.03259   23.96686
      H    H7715    17.99866   25.68045   23.31116
      O    O7716    15.47519   30.53537   17.07362
      H    H7717    14.53421   30.55039   17.24839
      H    H7718    15.78960   29.74897   17.51965
      O    O7719     5.45336   32.21733   10.63401
      H    H7720     6.21969   32.10547   11.19656
      H    H7721     5.53083   31.52113    9.98169
      O    O7722     4.14803   29.64984   11.31730
      H    H7723     4.22839   28.70259   11.42904
      H    H7724     5.04001   29.98053   11.42337
      O    O7725    17.47775   37.70626   18.74904
      H    H7726    17.60249   38.52937   19.22143
      H    H7727    18.34431   37.49533   18.40146
      O    O7728     4.94951   39.79938   18.42076
      H    H7729     5.68575   39.25092   18.69161
      H    H7730     5.33360   40.66498   18.28136
      O    O7731     1.83405   35.86673   14.29491
      H    H7732     0.90803   36.10885   14.28545
      H    H7733     2.29970   36.69416   14.17338
      O    O7734     3.95533   38.98398   27.60932
      H    H7735     4.75661   39.30519   28.02286
      H    H7736     3.44052   38.62354   28.33131
      O    O7737     8.05974   38.97241   10.24331
      H    H7738     8.85260   39.26129    9.79149
      H    H7739     7.54017   38.54162    9.56456
      O    O7740    12.79180   35.09197   27.55686
      H    H7741    12.18561   35.11513   26.81643
      H    H7742    12.48721   34.36027   28.09358
      O    O7743    14.22183   38.82000   26.16780
      H    H7744    15.17401   38.73580   26.11782
      H    H7745    14.07466   39.48417   26.84118
      O    O7746    17.11275   38.19942   11.66699
      H    H7747    16.82690   37.78593   10.85241
      H    H7748    16.91471   39.12819   11.54704
      O    O7749     1.67511   31.47133   26.55292
      H    H7750     2.17902   30.89206   27.12454
      H    H7751     0.93586   31.75535   27.09056
      O    O7752     8.57748   34.19275   10.10755
      H    H7753     8.47254   33.57798   10.83369
      H    H7754     8.40990   33.66934    9.32385
      O    O7755     8.72891   32.87843   26.08647
      H    H7756     7.96348   33.44693   26.00194
      H    H7757     8.91050   32.58605   25.19330
      O    O7758    11.81775   33.25475   10.71175
      H    H7759    11.26876   33.70168   11.35602
      H    H7760    12.43968   32.74968   11.23552
      O    O7761    15.87124   34.60896   26.64397
      H    H7762    16.61219   34.94654   26.14072
      H    H7763    15.10851   34.77817   26.09095
      O    O7764     3.70742   29.61429   27.44793
      H    H7765     3.74796   29.31568   28.35645
      H    H7766     4.56197   30.01505   27.28868
      O    O7767     7.48526   32.21384   12.60828
      H    H7768     7.90690   32.04783   13.45142
      H    H7769     7.61035   31.40387   12.11379
      O    O7770     5.64800   28.19350   25.41538
      H    H7771     5.11765   27.70259   24.78771
      H    H7772     6.31681   28.62192   24.88117
      O    O7773     9.99803   31.23760    9.85599
      H    H7774    10.51859   30.52251    9.49010
      H    H7775    10.64487   31.87619   10.15604
      O    O7776    14.54581   32.66044   25.17950
      H    H7777    14.95991   32.81495   26.02854
      H    H7778    13.61091   32.78597   25.34207
      O    O7779    15.01803   30.00006   27.18341
      H    H7780    15.60010   29.24529   27.09546
      H    H7781    15.19420   30.53080   26.40656
      O    O7782     6.13523   25.15974   25.49511
      H    H7783     6.04092   24.54181   24.77019
      H    H7784     5.55497   25.88636   25.26810
      O    O7785     8.90138   23.71706   22.52784
      H    H7786     8.45311   23.73949   21.68240
      H    H7787     8.26790   23.31896   23.12487
      O    O7788     9.30733   32.61249   23.14909
      H    H7789     9.72614   33.45577   22.97671
      H    H7790     8.38820   32.74970   22.91977
      O    O7791    11.64372   30.34411   24.53287
      H    H7792    11.76334   29.74822   25.27236
      H    H7793    12.50312   30.38108   24.11300
      O    O7794    13.98251   30.89783   23.10912
      H    H7795    13.45603   31.42209   22.50564
      H    H7796    14.32565   31.53057   23.74010
      O    O7797     6.38115   28.28717    9.55409
      H    H7798     6.18006   27.42390    9.91543
      H    H7799     6.21036   28.20050    8.61625
      O    O7800     7.15807   38.91779   24.26486
      H    H7801     6.62018   39.64240   23.94573
      H    H7802     7.41147   38.44083   23.47460
      O    O7803     8.41060   26.88625   25.79045
      H    H7804     9.00057   26.57783   26.47824
      H    H7805     7.59262   26.41422   25.94644
      O    O7806    13.22994   26.50283   26.02376
      H    H7807    12.54149   25.84098   25.95876
      H    H7808    13.95054   26.05665   26.46860
      O    O7809    13.85998   23.09799   12.08278
      H    H7810    14.14021   22.25478   12.43872
      H    H7811    13.08656   23.33030   12.59666
      O    O7812     5.17943   25.38723    9.54188
      H    H7813     5.48202   25.39397    8.63380
      H    H7814     5.91889   25.03701   10.03865
      O    O7815    10.01430   40.15291   24.52353
      H    H7816     9.94017   41.05643   24.83076
      H    H7817     9.11218   39.83410   24.49573
      O    O7818     8.39792   24.33069   10.52750
      H    H7819     8.05012   23.65309    9.94775
      H    H7820     8.59920   23.86964   11.34184
      O    O7821    10.56283   39.31877   12.14616
      H    H7822    11.45791   39.65726   12.16804
      H    H7823    10.59459   38.59671   11.51859
      O    O7824     4.20244   34.69147   10.37486
      H    H7825     4.63993   35.23444   11.03062
      H    H7826     4.68722   33.86617   10.38450
      O    O7827     1.41702   37.48037   17.82689
      H    H7828     1.74733   36.61248   17.59475
      H    H7829     1.84612   37.68623   18.65738
      O    O7830     6.01322   35.81127   15.48709
      H    H7831     5.71277   35.68777   16.38748
      H    H7832     5.90697   34.95213   15.07866
      O    O7833     1.90605   38.34743   20.56505
      H    H7834     1.46914   38.52751   21.39747
      H    H7835     2.47381   39.10489   20.42322
      O    O7836    17.54226   37.84913   24.85278
      H    H7837    16.94246   37.90839   24.10917
      H    H7838    17.67165   36.90963   24.98247
      O    O7839    18.78241   35.59091   10.18975
      H    H7840    17.95170   35.65858   10.66048
      H    H7841    18.95959   36.48133    9.88644
      O    O7842    18.23805   32.33566   12.69317
      H    H7843    18.99995   32.90533   12.79914
      H    H7844    18.25349   31.76838   13.46400
      O    O7845     1.73849   30.85946   16.92394
      H    H7846     1.08337   30.59062   16.27991
      H    H7847     2.57628   30.74990   16.47414
      O    O7848    19.24405   33.19067   17.53737
      H    H7849    19.61493   32.40740   17.13096
      H    H7850    19.88424   33.87958   17.35910
      O    O7851    16.22743   34.57433   22.95040
      H    H7852    15.41341   35.00405   23.21298
      H    H7853    16.63485   35.18617   22.33730
      O    O7854    18.28997   32.62910    9.85043
      H    H7855    18.56486   33.53699    9.72235
      H    H7856    18.10105   32.56535   10.78662
      O    O7857    14.68753   25.65358   11.14579
      H    H7858    15.10602   25.46668   10.30545
      H    H7859    14.38114   24.80149   11.45608
      O    O7860    18.18651   30.56600   14.84337
      H    H7861    17.81087   29.79879   14.41150
      H    H7862    17.45682   30.94827   15.33086
      O    O7863     2.77608   31.24471   21.46427
      H    H7864     3.14339   31.15745   22.34388
      H    H7865     2.20716   30.48137   21.36496
      O    O7866    17.57647   29.71315   24.47732
      H    H7867    17.34508   29.48443   23.57712
      H    H7868    17.83692   30.63311   24.43181
      O    O7869     2.32768   28.15562   25.37012
      H    H7870     1.43329   28.12230   25.70949
      H    H7871     2.86744   28.35430   26.13524
      O    O7872    16.01527   24.93879   27.25529
      H    H7873    16.89229   24.94713   27.63869
      H    H7874    16.02736   24.20188   26.64453
      O    O7875     0.95230   28.06935   12.86647
      H    H7876     0.04870   28.33237   12.69164
      H    H7877     1.43636   28.34047   12.08647
      O    O7878    17.46160   28.79175   18.14409
      H    H7879    17.98535   28.29801   17.51311
      H    H7880    18.04754   28.92678   18.88885
      O    O7881    17.64057   28.87573   21.66605
      H    H7882    16.69084   28.84209   21.78055
      H    H7883    17.82187   29.78575   21.43102
      O    O7884     3.49502   27.12590   10.77591
      H    H7885     4.20419   26.70422   10.29064
      H    H7886     2.77901   27.19343   10.14425
      O    O7887     3.14243   23.17984    9.81618
      H    H7888     3.86525   23.72073   10.13430
      H    H7889     3.41489   22.90618    8.94033
      O    O7890    16.95160   28.04908   14.08333
      H    H7891    17.44751   27.81617   14.86822
      H    H7892    16.75321   27.21027   13.66710
      O    O7893     2.83165   22.43045   19.71844
      H    H7894     3.47927   21.88019   19.27795
      H    H7895     3.25184   22.68477   20.54002
      O    O7896    18.38031   26.68518   16.61710
      H    H7897    18.27024   26.53078   17.55533
      H    H7898    19.14107   26.15727   16.37464
      O    O7899    16.72689   22.62459   23.07540
      H    H7900    17.36411   23.23800   23.44132
      H    H7901    16.87438   22.66066   22.13032
      O    O7902    19.26934   24.51597    9.85772
      H    H7903    20.19427   24.38409    9.64954
      H    H7904    19.24692   24.59525   10.81136
      O    O7905    19.34319   25.28704   12.48339
      H    H7906    18.54834   25.22155   13.01268
      H    H7907    19.54752   26.22210   12.47192
      O    O7908    16.28503   39.32619   16.47723
      H    H7909    16.88094   39.00465   15.80067
      H    H7910    16.54285   38.85337   17.26855
      O    O7911     2.58485   22.58602   22.46097
      H    H7912     2.23633   23.04240   23.22679
      H    H7913     2.25362   21.69173   22.54321
      O    O7914     4.19129   35.75798   26.62629
      H    H7915     4.14825   35.38727   27.50773
      H    H7916     4.32239   36.69574   26.76647
      O    O7917     7.89189   37.31394   22.22726
      H    H7918     7.65103   37.58140   21.34031
      H    H7919     8.83216   37.48451   22.28235
      O    O7920    10.09733   23.77721   25.98291
      H    H7921    10.03622   24.36939   26.73245
      H    H7922    11.03737   23.66981   25.83794
      O    O7923    12.73479   23.43422   25.62214
      H    H7924    13.34883   23.75214   24.96025
      H    H7925    13.27975   22.94907   26.24173
      O    O7926    19.15231   39.33338   23.02832
      H    H7927    18.65814   39.73027   22.31104
      H    H7928    18.54364   38.70830   23.42205
      O    O7929     3.25692   22.11364   25.73605
      H    H7930     3.80522   21.93245   24.97266
      H    H7931     3.32245   21.32305   26.27168
      O    O7932     4.03009   38.70421   23.74607
      H    H7933     3.43612   38.57268   24.48507
      H    H7934     4.02248   37.86802   23.28028
      O    O7935    13.47559   21.99743   21.94907
      H    H7936    12.60158   22.33094   21.74636
      H    H7937    13.36667   21.52475   22.77426
      O    O7938    14.38279   24.20452   23.33324
      H    H7939    14.05413   23.38969   22.95341
      H    H7940    15.33102   24.16150   23.20981
      O    O7941    16.83625   39.97572   20.30700
      H    H7942    16.37655   40.72730   19.93280
      H    H7943    16.20750   39.25637   20.24848
      O    O7944     3.66132   36.07004   22.69687
      H    H7945     2.93472   35.45057   22.62947
      H    H7946     3.72223   36.46411   21.82668
      O    O7947     7.26583   38.28454   19.48181
      H    H7948     7.78233   37.67328   18.95664
      H    H7949     7.91556   38.78742   19.97291
      O    O7950    10.00538   39.17539   20.30871
      H    H7951    10.29316   38.92082   19.43201
      H    H7952    10.51770   38.62313   20.89927
      O    O7953    11.22308   22.91441   20.88836
      H    H7954    10.44026   23.38896   21.16804
      H    H7955    10.92937   22.00990   20.77968
      O    O7956    15.77518   23.61672   18.93327
      H    H7957    16.21599   23.56123   18.08543
      H    H7958    15.50594   24.53252   19.00429
      O    O7959    17.63904   23.24825   16.94415
      H    H7960    17.57788   22.30437   16.79725
      H    H7961    18.41824   23.35626   17.48950
      O    O7962     1.94432   39.38748   15.90655
      H    H7963     1.77652   38.75455   16.60474
      H    H7964     1.07777   39.59342   15.55597
      O    O7965     2.56712   23.21916   13.40973
      H    H7966     3.32505   23.33205   12.83614
      H    H7967     2.10483   24.05608   13.36408
      O    O7968     9.10850   25.33309   16.39996
      H    H7969     8.29595   24.95878   16.05955
      H    H7970     9.61266   24.57760   16.70208
      O    O7971    13.61100   21.99733   17.63827
      H    H7972    14.21393   22.56935   18.11312
      H    H7973    12.87030   22.56128   17.41566
      O    O7974    16.75446   22.39949   12.91230
      H    H7975    16.94952   23.29783   13.17904
      H    H7976    15.96744   22.16820   13.40559
      O    O7977     3.55059   38.08081   13.35156
      H    H7978     3.02535   38.46161   12.64776
      H    H7979     3.47504   38.70588   14.07253
      O    O7980     4.93963   23.74557   11.94993
      H    H7981     5.46891   22.95855   11.82072
      H    H7982     5.57246   24.42469   12.18348
      O    O7983     7.13342   23.48308   15.00447
      H    H7984     6.50369   22.78181   15.17148
      H    H7985     6.59393   24.24349   14.78778
      O    O7986    10.07261   40.09700   27.67553
      H    H7987    10.99934   39.86143   27.71913
      H    H7988    10.05765   40.92420   27.19413
      O    O7989    18.30712   39.63956   14.67295
      H    H7990    18.48234   38.95333   14.02905
      H    H7991    17.60927   40.16427   14.28062
      O    O7992     7.25897   22.76148   27.43972
      H    H7993     6.97740   23.26484   26.67580
      H    H7994     7.64094   21.96365   27.07393
      O    O7995     6.14988   40.02904   12.22649
      H    H7996     6.88176   39.74497   11.67887
      H    H7997     6.40925   39.79037   13.11642
      O    O7998     5.31136   36.14552   12.23112
      H    H7999     4.68225   36.61403   12.77970
      H    H8000     5.42614   35.30044   12.66574
      O    O8001    13.86052   22.17684   28.01776
      H    H8002    13.74706   22.49630   28.91292
      H    H8003    14.67749   22.57809   27.72149
      O    O8004    16.64037   39.32399   27.49963
      H    H8005    17.43290   38.82891   27.29223
      H    H8006    16.93368   40.00300   28.10719
      O    O8007    31.54068   30.19608   17.15559
      H    H8008    31.46009   29.28154   16.88476
      H    H8009    31.12713   30.69279   16.44956
      O    O8010    29.67249   31.97399   19.03651
      H    H8011    28.89670   31.49403   19.32637
      H    H8012    30.32378   31.29455   18.86213
      O    O8013    23.68907   32.28597   19.91409
      H    H8014    22.85756   32.03084   20.31374
      H    H8015    24.29717   32.35704   20.64988
      O    O8016    33.69323   36.38000   17.81643
      H    H8017    33.23138   35.60873   18.14514
      H    H8018    34.50579   36.40661   18.32167
      O    O8019    23.66920   36.31998   20.10989
      H    H8020    23.97200   35.42975   19.93091
      H    H8021    24.41356   36.87700   19.88212
      O    O8022    22.09827   27.24616   13.69833
      H    H8023    21.20994   27.58775   13.59632
      H    H8024    22.38238   27.04619   12.80641
      O    O8025    20.06157   29.84672   19.58230
      H    H8026    20.63318   29.07894   19.58266
      H    H8027    20.06172   30.14560   18.67296
      O    O8028    29.91956   38.66581   17.43683
      H    H8029    29.30071   39.12156   16.86627
      H    H8030    30.77474   38.82095   17.03580
      O    O8031    29.11339   34.64970   19.04353
      H    H8032    29.04421   33.70870   18.88244
      H    H8033    29.87537   34.73985   19.61579
      O    O8034    21.30405   25.25516   21.36919
      H    H8035    21.12434   24.35773   21.64947
      H    H8036    20.90206   25.80234   22.04389
      O    O8037    30.14390   27.45674   19.27042
      H    H8038    30.52039   26.58393   19.15779
      H    H8039    30.04585   27.79261   18.37947
      O    O8040    24.27440   25.82931   14.73217
      H    H8041    24.38108   26.72968   15.03904
      H    H8042    23.36364   25.78110   14.44163
      O    O8043    33.92632   24.95179   16.20326
      H    H8044    34.74728   24.46144   16.24581
      H    H8045    33.95972   25.54155   16.95644
      O    O8046    21.92272   27.75121   19.97743
      H    H8047    22.60373   28.01504   20.59617
      H    H8048    21.60753   26.91129   20.31123
      O    O8049    26.11518   28.79794   19.06469
      H    H8050    26.62300   29.29604   19.70519
      H    H8051    26.64650   28.02146   18.88862
      O    O8052    38.21627   26.96846   22.76762
      H    H8053    37.51149   27.35663   22.24913
      H    H8054    38.48206   27.66349   23.36971
      O    O8055    24.39879   23.43780   23.33103
      H    H8056    24.40063   23.95504   22.52562
      H    H8057    23.56922   22.96082   23.30802
      O    O8058    30.78590   33.54973   14.83002
      H    H8059    30.16762   34.01467   14.26629
      H    H8060    31.29822   34.24248   15.24697
      O    O8061    25.64907   33.07732   21.50838
      H    H8062    25.31601   33.70421   22.15048
      H    H8063    25.82574   33.60350   20.72854
      O    O8064    34.16246   26.89182   18.97601
      H    H8065    33.45802   27.18031   19.55632
      H    H8066    34.52368   27.70184   18.61597
      O    O8067    24.08032   25.14879   21.33807
      H    H8068    24.42200   25.99300   21.04346
      H    H8069    23.14190   25.29717   21.45461
      O    O8070    24.86098   35.04540   23.32330
      H    H8071    25.47838   35.72050   23.04174
      H    H8072    24.00029   35.45419   23.23205
      O    O8073    20.15422   34.23538   12.20398
      H    H8074    19.77701   34.72409   11.47247
      H    H8075    20.41152   34.90791   12.83463
      O    O8076    35.77874   36.50934   21.23876
      H    H8077    35.09509   37.17925   21.23043
      H    H8078    36.31817   36.70740   20.47325
      O    O8079    37.23116   26.33730   19.36693
      H    H8080    36.28365   26.37120   19.49848
      H    H8081    37.55615   27.15120   19.75187
      O    O8082    27.76311   22.63702   17.66253
      H    H8083    28.07061   22.08171   16.94608
      H    H8084    26.83318   22.77147   17.47983
      O    O8085    33.31462   38.35375   19.95328
      H    H8086    33.32733   37.94998   19.08550
      H    H8087    32.76214   39.12848   19.84942
      O    O8088    34.60916   35.07537   15.04229
      H    H8089    34.49879   34.13281   15.16724
      H    H8090    34.60598   35.43694   15.92857
      O    O8091    32.71316   33.25673   21.28154
      H    H8092    33.13004   33.04275   20.44688
      H    H8093    33.43714   33.51401   21.85240
      O    O8094    30.15119   30.70190   14.39854
      H    H8095    29.22411   30.63564   14.62739
      H    H8096    30.30367   31.63992   14.28407
      O    O8097    30.13809   26.97360   11.39526
      H    H8098    29.19846   27.13500   11.48051
      H    H8099    30.45642   27.69217   10.84886
      O    O8100    36.65937   31.65546   21.37316
      H    H8101    35.83123   31.72477   20.89818
      H    H8102    37.25442   32.24089   20.90475
      O    O8103    34.18091   32.26393   14.90207
      H    H8104    33.56216   31.92589   14.25470
      H    H8105    34.16336   31.61991   15.60999
      O    O8106    33.62357   28.44239   22.31865
      H    H8107    33.21069   29.26776   22.57265
      H    H8108    32.89117   27.85689   22.12629
      O    O8109    25.75685   31.22838   17.18052
      H    H8110    25.35255   30.51610   16.68511
      H    H8111    25.84316   30.88370   18.06932
      O    O8112    26.22502   34.91513   19.34444
      H    H8113    25.92785   34.30968   18.66522
      H    H8114    27.17500   34.95287   19.23337
      O    O8115    24.46971   28.00270   20.96042
      H    H8116    25.02117   28.11223   20.18575
      H    H8117    24.98406   28.37646   21.67594
      O    O8118    34.31358   38.48832   23.00675
      H    H8119    33.83664   39.29554   22.81401
      H    H8120    33.62976   37.83615   23.15937
      O    O8121    25.31686   34.65330   25.99522
      H    H8122    24.41972   34.87730   26.24256
      H    H8123    25.34215   34.77680   25.04636
      O    O8124    32.35738   31.50262   11.90934
      H    H8125    32.79671   30.66486   11.76313
      H    H8126    33.07023   32.13556   11.99576
      O    O8127    24.14398   31.52464   24.57095
      H    H8128    24.00476   32.39692   24.93969
      H    H8129    23.26212   31.18192   24.42575
      O    O8130    30.46692   36.44222   15.87747
      H    H8131    30.90651   37.18466   15.46301
      H    H8132    30.40561   36.68488   16.80136
      O    O8133    25.94202   37.46681   26.77947
      H    H8134    25.91356   37.87110   25.91231
      H    H8135    25.77852   36.53784   26.61663
      O    O8136    35.93910   22.75690   10.22345
      H    H8137    35.62636   22.84958   11.12335
      H    H8138    36.70035   23.33500   10.17319
      O    O8139    22.45731   30.12288   14.68118
      H    H8140    22.33707   30.84909   14.06931
      H    H8141    22.14740   29.35317   14.20397
      O    O8142    37.89350   38.24952   28.07589
      H    H8143    38.36947   38.72780   28.75479
      H    H8144    38.51422   38.18126   27.35044
      O    O8145    20.09585   33.29439   20.48805
      H    H8146    20.17389   33.42927   19.54362
      H    H8147    20.71002   32.58598   20.68086
      O    O8148    21.34061   34.99441   16.89866
      H    H8149    20.93342   35.13587   16.04402
      H    H8150    22.23191   34.71043   16.69578
      O    O8151    37.29683   35.44080   25.23589
      H    H8152    37.42313   35.20199   24.31761
      H    H8153    37.33896   34.60925   25.70810
      O    O8154    31.15850   39.14360   23.80537
      H    H8155    31.67297   39.05440   24.60761
      H    H8156    30.31541   39.48957   24.09816
      O    O8157    33.13394   39.42913   13.23377
      H    H8158    32.97405   39.13943   14.13195
      H    H8159    32.96861   38.65315   12.69829
      O    O8160    25.61278   39.20899   15.01093
      H    H8161    25.43703   38.29254   14.79771
      H    H8162    24.75835   39.56772   15.25071
      O    O8163    32.83655   36.93789   11.79357
      H    H8164    32.14307   36.93562   11.13380
      H    H8165    33.57884   36.51382   11.36299
      O    O8166    32.40155   38.56416   15.86842
      H    H8167    32.85724   37.78310   16.18228
      H    H8168    32.74080   39.27484   16.41254
      O    O8169    37.14923   27.49405   26.20086
      H    H8170    36.53365   28.00201   25.67241
      H    H8171    36.82887   26.59388   26.14346
      O    O8172    20.15180   34.33581   23.02749
      H    H8173    20.31491   33.86634   22.20943
      H    H8174    20.61705   33.82816   23.69238
      O    O8175    24.92368   23.46638   18.06355
      H    H8176    24.48049   24.24734   17.73200
      H    H8177    25.48218   23.78937   18.77064
      O    O8178    29.21066   26.33324   23.66708
      H    H8179    28.74860   26.54154   24.47907
      H    H8180    28.80847   25.51917   23.36415
      O    O8181    34.21111   27.55413   24.79675
      H    H8182    33.36047   27.25471   25.11765
      H    H8183    34.05129   27.79833   23.88513
      O    O8184    31.30608   29.05431   26.89663
      H    H8185    31.63142   28.22068   26.55685
      H    H8186    32.09411   29.57716   27.04446
      O    O8187    28.03956   23.08745   12.94413
      H    H8188    27.41498   23.08344   13.66946
      H    H8189    27.95257   22.22055   12.54773
      O    O8190    26.96127   24.01112   19.92251
      H    H8191    27.25850   24.91740   19.84171
      H    H8192    27.50982   23.52299   19.30847
      O    O8193    24.71510   28.58974   15.79167
      H    H8194    24.48919   28.37346   16.69634
      H    H8195    23.93435   29.02259   15.44627
      O    O8196    31.94488   28.59608   14.39074
      H    H8197    31.34577   29.31966   14.20710
      H    H8198    32.49284   28.53376   13.60838
      O    O8199    27.15502   29.48830   26.45770
      H    H8200    27.05938   28.54777   26.30774
      H    H8201    27.99822   29.70981   26.06251
      O    O8202    30.55136   27.23243   16.42107
      H    H8203    30.94432   27.54965   15.60794
      H    H8204    30.91305   26.35362   16.53552
      O    O8205    22.28608   25.89967   24.61108
      H    H8206    21.89241   26.74719   24.81836
      H    H8207    21.59792   25.26230   24.80194
      O    O8208    28.86058   25.98316   27.68075
      H    H8209    28.17041   25.79038   28.31536
      H    H8210    29.60381   26.26663   28.21318
      O    O8211    19.58778   23.82251   18.64409
      H    H8212    19.29909   24.39280   19.35658
      H    H8213    20.33236   23.34296   19.00721
      O    O8214    19.77480   27.76452    9.85436
      H    H8215    19.69227   28.70760    9.99586
      H    H8216    19.42311   27.62201    8.97559
      O    O8217    31.13688   29.82301   20.51614
      H    H8218    30.40499   30.33169   20.86515
      H    H8219    30.73931   29.00600   20.21502
      O    O8220    27.57462   26.49843   18.92139
      H    H8221    27.57822   26.05742   18.07185
      H    H8222    28.46973   26.82016   19.02858
      O    O8223    23.42485   26.38108   17.88081
      H    H8224    23.08486   26.85860   18.63752
      H    H8225    22.66259   25.92759   17.52092
      O    O8226    27.63663   27.49963   11.91207
      H    H8227    27.75791   27.45828   12.86065
      H    H8228    27.25148   28.36205   11.75674
      O    O8229    31.59947   25.27637   19.92844
      H    H8230    31.61674   25.72724   20.77262
      H    H8231    31.35103   24.37694   20.14178
      O    O8232    26.64878   29.80975   11.31040
      H    H8233    26.08047   29.36157   10.68399
      H    H8234    27.35768   30.16903   10.77691
      O    O8235    35.02654   22.68959   25.76708
      H    H8236    35.35112   21.95856   26.29287
      H    H8237    35.06219   22.37096   24.86518
      O    O8238    21.72570   33.71095   25.18707
      H    H8239    21.34118   33.07032   25.78537
      H    H8240    22.03692   34.41456   25.75655
      O    O8241    27.87541   30.55860   20.66793
      H    H8242    28.24243   30.08446   21.41407
      H    H8243    27.68592   31.43276   21.00877
      O    O8244    20.73946   25.30297   16.79728
      H    H8245    20.45415   24.93854   17.63514
      H    H8246    20.67735   24.57102   16.18360
      O    O8247    25.66535   29.59947   22.98636
      H    H8248    25.36106   30.47867   23.21139
      H    H8249    26.62000   29.65945   23.02210
      O    O8250    24.19353   33.80557   13.58304
      H    H8251    23.41976   33.26533   13.42291
      H    H8252    24.92299   33.28623   13.24482
      O    O8253    34.95233   32.80210   19.37568
      H    H8254    35.67224   33.29763   18.98529
      H    H8255    34.75051   32.12389   18.73107
      O    O8256    30.41332   24.19590   13.51862
      H    H8257    29.59978   23.69722   13.44315
      H    H8258    30.21952   25.03572   13.10225
      O    O8259    30.33421   32.87301   25.26258
      H    H8260    30.26794   31.95258   25.00834
      H    H8261    29.70472   32.97055   25.97704
      O    O8262    33.12816   28.56786   11.81483
      H    H8263    34.01612   28.87959   11.63997
      H    H8264    33.09867   27.69509   11.42289
      O    O8265    24.23727   33.47361   17.22092
      H    H8266    24.75514   32.67043   17.16661
      H    H8267    23.78567   33.41152   18.06260
      O    O8268    29.12422   34.74023   12.49365
      H    H8269    29.46579   35.48446   11.99798
      H    H8270    28.29549   35.05335   12.85613
      O    O8271    21.72172   30.43974   24.13349
      H    H8272    21.36322   31.10513   24.72083
      H    H8273    21.42718   29.60810   24.50475
      O    O8274    24.92304   30.89817   27.01745
      H    H8275    24.62305   31.04388   26.12023
      H    H8276    25.69416   30.33870   26.92479
      O    O8277    30.26588   35.69507   25.01296
      H    H8278    30.28033   34.76316   24.79485
      H    H8279    29.55839   35.78104   25.65194
      O    O8280    35.39959   29.87905   11.28282
      H    H8281    35.31596   30.31047   10.43246
      H    H8282    36.11901   30.33888   11.71550
      O    O8283    36.47700   32.33580   24.35982
      H    H8284    35.75182   32.92868   24.16276
      H    H8285    37.00455   32.32815   23.56115
      O    O8286    36.42831   36.73327   14.01103
      H    H8287    35.78593   36.07884   14.28541
      H    H8288    36.04138   37.13878   13.23510
      O    O8289    32.00696   34.06182   17.85820
      H    H8290    32.35934   33.46463   17.19834
      H    H8291    31.12319   33.73624   18.02903
      O    O8292    28.09329   34.82159   15.26524
      H    H8293    28.78040   35.36851   15.64600
      H    H8294    27.30653   35.36566   15.30020
      O    O8295    20.23253   30.43887   10.75695
      H    H8296    21.10201   30.72135   11.04054
      H    H8297    19.74156   31.25246   10.64183
      O    O8298    27.39601   31.82619   14.87778
      H    H8299    27.85229   32.63671   15.10380
      H    H8300    27.04483   31.50850   15.70963
      O    O8301    29.69927   37.33682   22.10701
      H    H8302    30.34349   37.54276   22.78435
      H    H8303    30.06221   36.57566   21.65409
      O    O8304    23.29719   22.16995   15.35003
      H    H8305    23.16865   22.16174   16.29852
      H    H8306    22.47339   22.50826   14.99913
      O    O8307    30.97248   35.34006   20.82475
      H    H8308    31.61470   34.63937   20.93797
      H    H8309    31.49741   36.11990   20.64444
      O    O8310    34.81805   35.62492   10.54867
      H    H8311    34.59181   34.90796   11.14113
      H    H8312    34.42767   35.37616    9.71084
      O    O8313    32.74624   36.13955   24.02836
      H    H8314    33.08186   36.72622   24.70615
      H    H8315    31.82627   36.00882   24.25814
      O    O8316    20.59965   39.65161   11.32311
      H    H8317    20.95942   40.25054   10.66884
      H    H8318    20.45889   40.19760   12.09662
      O    O8319    20.29658   23.92907   24.81070
      H    H8320    19.58243   24.12876   25.41596
      H    H8321    20.71608   23.15302   25.18218
      O    O8322    34.39968   33.54211   12.21008
      H    H8323    34.11185   34.00338   12.99787
      H    H8324    35.19489   33.08189   12.47851
      O    O8325    20.58384   37.91709   25.79735
      H    H8326    20.69295   36.97657   25.65689
      H    H8327    19.93190   38.18257   25.14873
      O    O8328    28.57510   36.18868   27.19717
      H    H8329    28.25479   35.46961   27.74174
      H    H8330    27.90093   36.86419   27.27077
      O    O8331    26.61652   37.03473   12.14048
      H    H8332    26.60753   37.76770   11.52493
      H    H8333    25.69635   36.78788   12.23318
      O    O8334    22.21718   32.25622   12.88516
      H    H8335    21.60997   32.99611   12.89469
      H    H8336    22.69211   32.34615   12.05898
      O    O8337    31.79046   26.42130   22.56085
      H    H8338    32.15854   25.60082   22.88880
      H    H8339    30.93028   26.48149   22.97641
      O    O8340    35.15666   25.37699   13.36960
      H    H8341    34.52798   25.48156   12.65543
      H    H8342    34.66185   25.59667   14.15899
      O    O8343    29.60248   37.09755   10.80300
      H    H8344    29.70367   36.89395    9.87320
      H    H8345    28.70265   36.84338   11.00778
      O    O8346    27.12506   27.65559   14.78539
      H    H8347    26.41668   28.12422   15.22675
      H    H8348    27.40951   26.99779   15.41991
      O    O8349    28.75066   29.07526   22.78464
      H    H8350    29.24918   29.54984   23.44983
      H    H8351    28.89295   28.15161   22.99165
      O    O8352    31.15661   24.38065   16.22497
      H    H8353    31.03339   24.39927   15.27592
      H    H8354    32.10506   24.42855   16.34481
      O    O8355    28.24429   39.61618   15.49777
      H    H8356    28.49844   39.57832   14.57570
      H    H8357    27.29553   39.48952   15.49059
      O    O8358    25.32857   25.96409   12.16046
      H    H8359    26.17762   26.40111   12.09448
      H    H8360    24.96169   26.27612   12.98767
      O    O8361    35.95734   25.29205   23.62748
      H    H8362    35.45470   26.03259   23.96686
      H    H8363    36.77301   25.68045   23.31116
      O    O8364    34.24954   30.53537   17.07362
      H    H8365    33.30856   30.55039   17.24839
      H    H8366    34.56395   29.74897   17.51965
      O    O8367    24.22771   32.21733   10.63401
      H    H8368    24.99404   32.10547   11.19656
      H    H8369    24.30518   31.52113    9.98169
      O    O8370    22.92238   29.64984   11.31730
      H    H8371    23.00274   28.70259   11.42904
      H    H8372    23.81436   29.98053   11.42337
      O    O8373    36.25210   37.70626   18.74904
      H    H8374    36.37684   38.52937   19.22143
      H    H8375    37.11866   37.49533   18.40146
      O    O8376    23.72386   39.79938   18.42076
      H    H8377    24.46010   39.25092   18.69161
      H    H8378    24.10795   40.66498   18.28136
      O    O8379    20.60840   35.86673   14.29491
      H    H8380    19.68238   36.10885   14.28545
      H    H8381    21.07405   36.69416   14.17338
      O    O8382    22.72968   38.98398   27.60932
      H    H8383    23.53096   39.30519   28.02286
      H    H8384    22.21487   38.62354   28.33131
      O    O8385    26.83409   38.97241   10.24331
      H    H8386    27.62695   39.26129    9.79149
      H    H8387    26.31452   38.54162    9.56456
      O    O8388    31.56615   35.09197   27.55686
      H    H8389    30.95996   35.11513   26.81643
      H    H8390    31.26156   34.36027   28.09358
      O    O8391    32.99618   38.82000   26.16780
      H    H8392    33.94836   38.73580   26.11782
      H    H8393    32.84901   39.48417   26.84118
      O    O8394    35.88710   38.19942   11.66699
      H    H8395    35.60125   37.78593   10.85241
      H    H8396    35.68906   39.12819   11.54704
      O    O8397    20.44946   31.47133   26.55292
      H    H8398    20.95337   30.89206   27.12454
      H    H8399    19.71021   31.75535   27.09056
      O    O8400    27.35183   34.19275   10.10755
      H    H8401    27.24689   33.57798   10.83369
      H    H8402    27.18425   33.66934    9.32385
      O    O8403    27.50326   32.87843   26.08647
      H    H8404    26.73783   33.44693   26.00194
      H    H8405    27.68485   32.58605   25.19330
      O    O8406    30.59210   33.25475   10.71175
      H    H8407    30.04311   33.70168   11.35602
      H    H8408    31.21403   32.74968   11.23552
      O    O8409    34.64559   34.60896   26.64397
      H    H8410    35.38654   34.94654   26.14072
      H    H8411    33.88286   34.77817   26.09095
      O    O8412    22.48177   29.61429   27.44793
      H    H8413    22.52231   29.31568   28.35645
      H    H8414    23.33632   30.01505   27.28868
      O    O8415    26.25961   32.21384   12.60828
      H    H8416    26.68125   32.04783   13.45142
      H    H8417    26.38470   31.40387   12.11379
      O    O8418    24.42235   28.19350   25.41538
      H    H8419    23.89200   27.70259   24.78771
      H    H8420    25.09116   28.62192   24.88117
      O    O8421    28.77238   31.23760    9.85599
      H    H8422    29.29294   30.52251    9.49010
      H    H8423    29.41922   31.87619   10.15604
      O    O8424    33.32016   32.66044   25.17950
      H    H8425    33.73426   32.81495   26.02854
      H    H8426    32.38526   32.78597   25.34207
      O    O8427    33.79238   30.00006   27.18341
      H    H8428    34.37445   29.24529   27.09546
      H    H8429    33.96855   30.53080   26.40656
      O    O8430    24.90958   25.15974   25.49511
      H    H8431    24.81527   24.54181   24.77019
      H    H8432    24.32932   25.88636   25.26810
      O    O8433    27.67573   23.71706   22.52784
      H    H8434    27.22746   23.73949   21.68240
      H    H8435    27.04225   23.31896   23.12487
      O    O8436    28.08168   32.61249   23.14909
      H    H8437    28.50049   33.45577   22.97671
      H    H8438    27.16255   32.74970   22.91977
      O    O8439    30.41807   30.34411   24.53287
      H    H8440    30.53769   29.74822   25.27236
      H    H8441    31.27747   30.38108   24.11300
      O    O8442    32.75686   30.89783   23.10912
      H    H8443    32.23038   31.42209   22.50564
      H    H8444    33.10000   31.53057   23.74010
      O    O8445    25.15550   28.28717    9.55409
      H    H8446    24.95441   27.42390    9.91543
      H    H8447    24.98471   28.20050    8.61625
      O    O8448    25.93242   38.91779   24.26486
      H    H8449    25.39453   39.64240   23.94573
      H    H8450    26.18582   38.44083   23.47460
      O    O8451    27.18495   26.88625   25.79045
      H    H8452    27.77492   26.57783   26.47824
      H    H8453    26.36697   26.41422   25.94644
      O    O8454    32.00429   26.50283   26.02376
      H    H8455    31.31584   25.84098   25.95876
      H    H8456    32.72489   26.05665   26.46860
      O    O8457    32.63433   23.09799   12.08278
      H    H8458    32.91456   22.25478   12.43872
      H    H8459    31.86091   23.33030   12.59666
      O    O8460    23.95378   25.38723    9.54188
      H    H8461    24.25637   25.39397    8.63380
      H    H8462    24.69324   25.03701   10.03865
      O    O8463    28.78865   40.15291   24.52353
      H    H8464    28.71452   41.05643   24.83076
      H    H8465    27.88653   39.83410   24.49573
      O    O8466    27.17227   24.33069   10.52750
      H    H8467    26.82447   23.65309    9.94775
      H    H8468    27.37355   23.86964   11.34184
      O    O8469    29.33718   39.31877   12.14616
      H    H8470    30.23226   39.65726   12.16804
      H    H8471    29.36894   38.59671   11.51859
      O    O8472    22.97679   34.69147   10.37486
      H    H8473    23.41428   35.23444   11.03062
      H    H8474    23.46157   33.86617   10.38450
      O    O8475    20.19137   37.48037   17.82689
      H    H8476    20.52168   36.61248   17.59475
      H    H8477    20.62047   37.68623   18.65738
      O    O8478    24.78757   35.81127   15.48709
      H    H8479    24.48712   35.68777   16.38748
      H    H8480    24.68132   34.95213   15.07866
      O    O8481    20.68040   38.34743   20.56505
      H    H8482    20.24349   38.52751   21.39747
      H    H8483    21.24816   39.10489   20.42322
      O    O8484    36.31661   37.84913   24.85278
      H    H8485    35.71681   37.90839   24.10917
      H    H8486    36.44600   36.90963   24.98247
      O    O8487    37.55676   35.59091   10.18975
      H    H8488    36.72605   35.65858   10.66048
      H    H8489    37.73394   36.48133    9.88644
      O    O8490    37.01240   32.33566   12.69317
      H    H8491    37.77430   32.90533   12.79914
      H    H8492    37.02784   31.76838   13.46400
      O    O8493    20.51284   30.85946   16.92394
      H    H8494    19.85772   30.59062   16.27991
      H    H8495    21.35063   30.74990   16.47414
      O    O8496    38.01840   33.19067   17.53737
      H    H8497    38.38928   32.40740   17.13096
      H    H8498    38.65859   33.87958   17.35910
      O    O8499    35.00178   34.57433   22.95040
      H    H8500    34.18776   35.00405   23.21298
      H    H8501    35.40920   35.18617   22.33730
      O    O8502    37.06432   32.62910    9.85043
      H    H8503    37.33921   33.53699    9.72235
      H    H8504    36.87540   32.56535   10.78662
      O    O8505    33.46188   25.65358   11.14579
      H    H8506    33.88037   25.46668   10.30545
      H    H8507    33.15549   24.80149   11.45608
      O    O8508    36.96086   30.56600   14.84337
      H    H8509    36.58522   29.79879   14.41150
      H    H8510    36.23117   30.94827   15.33086
      O    O8511    21.55043   31.24471   21.46427
      H    H8512    21.91774   31.15745   22.34388
      H    H8513    20.98151   30.48137   21.36496
      O    O8514    36.35082   29.71315   24.47732
      H    H8515    36.11943   29.48443   23.57712
      H    H8516    36.61127   30.63311   24.43181
      O    O8517    21.10203   28.15562   25.37012
      H    H8518    20.20764   28.12230   25.70949
      H    H8519    21.64179   28.35430   26.13524
      O    O8520    34.78962   24.93879   27.25529
      H    H8521    35.66664   24.94713   27.63869
      H    H8522    34.80171   24.20188   26.64453
      O    O8523    19.72665   28.06935   12.86647
      H    H8524    18.82305   28.33237   12.69164
      H    H8525    20.21071   28.34047   12.08647
      O    O8526    36.23595   28.79175   18.14409
      H    H8527    36.75970   28.29801   17.51311
      H    H8528    36.82189   28.92678   18.88885
      O    O8529    36.41492   28.87573   21.66605
      H    H8530    35.46519   28.84209   21.78055
      H    H8531    36.59622   29.78575   21.43102
      O    O8532    22.26937   27.12590   10.77591
      H    H8533    22.97854   26.70422   10.29064
      H    H8534    21.55336   27.19343   10.14425
      O    O8535    21.91678   23.17984    9.81618
      H    H8536    22.63960   23.72073   10.13430
      H    H8537    22.18924   22.90618    8.94033
      O    O8538    35.72595   28.04908   14.08333
      H    H8539    36.22186   27.81617   14.86822
      H    H8540    35.52756   27.21027   13.66710
      O    O8541    21.60600   22.43045   19.71844
      H    H8542    22.25362   21.88019   19.27795
      H    H8543    22.02619   22.68477   20.54002
      O    O8544    37.15466   26.68518   16.61710
      H    H8545    37.04459   26.53078   17.55533
      H    H8546    37.91542   26.15727   16.37464
      O    O8547    35.50124   22.62459   23.07540
      H    H8548    36.13846   23.23800   23.44132
      H    H8549    35.64873   22.66066   22.13032
      O    O8550    38.04369   24.51597    9.85772
      H    H8551    38.96862   24.38409    9.64954
      H    H8552    38.02127   24.59525   10.81136
      O    O8553    38.11754   25.28704   12.48339
      H    H8554    37.32269   25.22155   13.01268
      H    H8555    38.32187   26.22210   12.47192
      O    O8556    35.05938   39.32619   16.47723
      H    H8557    35.65529   39.00465   15.80067
      H    H8558    35.31720   38.85337   17.26855
      O    O8559    21.35920   22.58602   22.46097
      H    H8560    21.01068   23.04240   23.22679
      H    H8561    21.02797   21.69173   22.54321
      O    O8562    22.96564   35.75798   26.62629
      H    H8563    22.92260   35.38727   27.50773
      H    H8564    23.09674   36.69574   26.76647
      O    O8565    26.66624   37.31394   22.22726
      H    H8566    26.42538   37.58140   21.34031
      H    H8567    27.60651   37.48451   22.28235
      O    O8568    28.87168   23.77721   25.98291
      H    H8569    28.81057   24.36939   26.73245
      H    H8570    29.81172   23.66981   25.83794
      O    O8571    31.50914   23.43422   25.62214
      H    H8572    32.12318   23.75214   24.96025
      H    H8573    32.05410   22.94907   26.24173
      O    O8574    37.92666   39.33338   23.02832
      H    H8575    37.43249   39.73027   22.31104
      H    H8576    37.31799   38.70830   23.42205
      O    O8577    22.03127   22.11364   25.73605
      H    H8578    22.57957   21.93245   24.97266
      H    H8579    22.09680   21.32305   26.27168
      O    O8580    22.80444   38.70421   23.74607
      H    H8581    22.21047   38.57268   24.48507
      H    H8582    22.79683   37.86802   23.28028
      O    O8583    32.24994   21.99743   21.94907
      H    H8584    31.37593   22.33094   21.74636
      H    H8585    32.14102   21.52475   22.77426
      O    O8586    33.15714   24.20452   23.33324
      H    H8587    32.82848   23.38969   22.95341
      H    H8588    34.10537   24.16150   23.20981
      O    O8589    35.61060   39.97572   20.30700
      H    H8590    35.15090   40.72730   19.93280
      H    H8591    34.98185   39.25637   20.24848
      O    O8592    22.43567   36.07004   22.69687
      H    H8593    21.70907   35.45057   22.62947
      H    H8594    22.49658   36.46411   21.82668
      O    O8595    26.04018   38.28454   19.48181
      H    H8596    26.55668   37.67328   18.95664
      H    H8597    26.68991   38.78742   19.97291
      O    O8598    28.77973   39.17539   20.30871
      H    H8599    29.06751   38.92082   19.43201
      H    H8600    29.29205   38.62313   20.89927
      O    O8601    29.99743   22.91441   20.88836
      H    H8602    29.21461   23.38896   21.16804
      H    H8603    29.70372   22.00990   20.77968
      O    O8604    34.54953   23.61672   18.93327
      H    H8605    34.99034   23.56123   18.08543
      H    H8606    34.28029   24.53252   19.00429
      O    O8607    36.41339   23.24825   16.94415
      H    H8608    36.35223   22.30437   16.79725
      H    H8609    37.19259   23.35626   17.48950
      O    O8610    20.71867   39.38748   15.90655
      H    H8611    20.55087   38.75455   16.60474
      H    H8612    19.85212   39.59342   15.55597
      O    O8613    21.34147   23.21916   13.40973
      H    H8614    22.09940   23.33205   12.83614
      H    H8615    20.87918   24.05608   13.36408
      O    O8616    27.88285   25.33309   16.39996
      H    H8617    27.07030   24.95878   16.05955
      H    H8618    28.38701   24.57760   16.70208
      O    O8619    32.38535   21.99733   17.63827
      H    H8620    32.98828   22.56935   18.11312
      H    H8621    31.64465   22.56128   17.41566
      O    O8622    35.52881   22.39949   12.91230
      H    H8623    35.72387   23.29783   13.17904
      H    H8624    34.74179   22.16820   13.40559
      O    O8625    22.32494   38.08081   13.35156
      H    H8626    21.79970   38.46161   12.64776
      H    H8627    22.24939   38.70588   14.07253
      O    O8628    23.71398   23.74557   11.94993
      H    H8629    24.24326   22.95855   11.82072
      H    H8630    24.34681   24.42469   12.18348
      O    O8631    25.90777   23.48308   15.00447
      H    H8632    25.27804   22.78181   15.17148
      H    H8633    25.36828   24.24349   14.78778
      O    O8634    28.84696   40.09700   27.67553
      H    H8635    29.77369   39.86143   27.71913
      H    H8636    28.83200   40.92420   27.19413
      O    O8637    37.08147   39.63956   14.67295
      H    H8638    37.25669   38.95333   14.02905
      H    H8639    36.38362   40.16427   14.28062
      O    O8640    26.03332   22.76148   27.43972
      H    H8641    25.75175   23.26484   26.67580
      H    H8642    26.41529   21.96365   27.07393
      O    O8643    24.92423   40.02904   12.22649
      H    H8644    25.65611   39.74497   11.67887
      H    H8645    25.18360   39.79037   13.11642
      O    O8646    24.08571   36.14552   12.23112
      H    H8647    23.45660   36.61403   12.77970
      H    H8648    24.20049   35.30044   12.66574
      O    O8649    32.63487   22.17684   28.01776
      H    H8650    32.52141   22.49630   28.91292
      H    H8651    33.45184   22.57809   27.72149
      O    O8652    35.41472   39.32399   27.49963
      H    H8653    36.20725   38.82891   27.29223
      H    H8654    35.70803   40.00300   28.10719
      O    O8655    -6.00802   -7.35262   35.92994
      H    H8656    -6.08861   -8.26716   35.65911
      H    H8657    -6.42157   -6.85591   35.22391
      O    O8658    -7.87621   -5.57471   37.81086
      H    H8659    -8.65200   -6.05467   38.10072
      H    H8660    -7.22492   -6.25415   37.63648
      O    O8661    -3.85547   -1.16870   36.59078
      H    H8662    -4.31732   -1.93997   36.91949
      H    H8663    -3.04291   -1.14209   37.09602
      O    O8664    -7.62914    1.11711   36.21118
      H    H8665    -8.24799    1.57286   35.64062
      H    H8666    -6.77396    1.27225   35.81015
      O    O8667    -8.43531   -2.89900   37.81788
      H    H8668    -8.50449   -3.84000   37.65679
      H    H8669    -7.67333   -2.80885   38.39014
      O    O8670    -6.76280   -3.99897   33.60437
      H    H8671    -7.38108   -3.53403   33.04064
      H    H8672    -6.25048   -3.30622   34.02132
      O    O8673    -1.76996   -1.03936   40.01311
      H    H8674    -2.45361   -0.36945   40.00478
      H    H8675    -1.23053   -0.84130   39.24760
      O    O8676    -4.23408    0.80505   38.72763
      H    H8677    -4.22137    0.40128   37.85985
      H    H8678    -4.78656    1.57978   38.62377
      O    O8679    -2.93954   -2.47333   33.81664
      H    H8680    -3.04991   -3.41589   33.94159
      H    H8681    -2.94272   -2.11176   34.70292
      O    O8682    -4.83554   -4.29197   40.05589
      H    H8683    -4.41866   -4.50595   39.22123
      H    H8684    -4.11156   -4.03469   40.62675
      O    O8685    -7.39751   -6.84680   33.17289
      H    H8686    -8.32459   -6.91306   33.40174
      H    H8687    -7.24503   -5.90878   33.05842
      O    O8688    -0.88933   -5.89324   40.14751
      H    H8689    -1.71747   -5.82393   39.67253
      H    H8690    -0.29428   -5.30781   39.67910
      O    O8691    -3.36779   -5.28477   33.67642
      H    H8692    -3.98654   -5.62281   33.02905
      H    H8693    -3.38534   -5.92879   34.38434
      O    O8694    -3.92513   -9.10631   41.09300
      H    H8695    -4.33801   -8.28094   41.34700
      H    H8696    -4.65753   -9.69181   40.90064
      O    O8697    -3.23512    0.93962   41.78110
      H    H8698    -3.71206    1.74684   41.58836
      H    H8699    -3.91894    0.28745   41.93372
      O    O8700    -5.19132   -6.04608   30.68369
      H    H8701    -4.75199   -6.88384   30.53748
      H    H8702    -4.47847   -5.41314   30.77011
      O    O8703    -7.08178   -1.10648   34.65182
      H    H8704    -6.64219   -0.36404   34.23736
      H    H8705    -7.14309   -0.86382   35.57571
      O    O8706     0.34480    0.70082   46.85024
      H    H8707     0.82077    1.17910   47.52914
      H    H8708     0.96552    0.63256   46.12479
      O    O8709    -0.25187   -2.10790   44.01024
      H    H8710    -0.12557   -2.34671   43.09196
      H    H8711    -0.20974   -2.93945   44.48245
      O    O8712    -6.39020    1.59490   42.57972
      H    H8713    -5.87573    1.50570   43.38196
      H    H8714    -7.23329    1.94087   42.87251
      O    O8715    -4.41476    1.88043   32.00812
      H    H8716    -4.57465    1.59073   32.90630
      H    H8717    -4.58009    1.10445   31.47264
      O    O8718    -4.71215   -0.61081   30.56792
      H    H8719    -5.40563   -0.61308   29.90815
      H    H8720    -3.96986   -1.03488   30.13734
      O    O8721    -5.14715    1.01546   34.64277
      H    H8722    -4.69146    0.23440   34.95663
      H    H8723    -4.80790    1.72614   35.18689
      O    O8724    -6.24262   -8.49439   45.67098
      H    H8725    -5.91728   -9.32802   45.33120
      H    H8726    -5.45459   -7.97154   45.81881
      O    O8727    -5.60382   -8.95262   33.16509
      H    H8728    -6.20293   -8.22904   32.98145
      H    H8729    -5.05586   -9.01494   32.38273
      O    O8730    -6.41182   -7.72569   39.29049
      H    H8731    -7.14371   -7.21701   39.63950
      H    H8732    -6.80939   -8.54270   38.98937
      O    O8733    -2.59637   -4.74660   38.15003
      H    H8734    -1.87646   -4.25107   37.75964
      H    H8735    -2.79819   -5.42481   37.50542
      O    O8736    -7.21449   -4.67569   44.03693
      H    H8737    -7.28076   -5.59612   43.78269
      H    H8738    -7.84398   -4.57815   44.75139
      O    O8739    -4.42054   -8.98084   30.58918
      H    H8740    -3.53258   -8.66911   30.41432
      H    H8741    -4.45003   -9.85361   30.19724
      O    O8742    -8.42448   -2.80847   31.26800
      H    H8743    -8.08291   -2.06424   30.77233
      H    H8744    -9.25321   -2.49535   31.63048
      O    O8745    -7.28282   -1.85363   43.78731
      H    H8746    -7.26837   -2.78554   43.56920
      H    H8747    -7.99031   -1.76766   44.42629
      O    O8748    -2.14911   -7.66965   30.05717
      H    H8749    -2.23274   -7.23823   29.20681
      H    H8750    -1.42969   -7.20982   30.48985
      O    O8751    -1.07170   -5.21290   43.13417
      H    H8752    -1.79688   -4.62002   42.93711
      H    H8753    -0.54415   -5.22055   42.33550
      O    O8754    -1.12039   -0.81543   32.78538
      H    H8755    -1.76277   -1.46986   33.05976
      H    H8756    -1.50732   -0.40992   32.00945
      O    O8757    -5.54174   -3.48688   36.63255
      H    H8758    -5.18936   -4.08407   35.97269
      H    H8759    -6.42551   -3.81246   36.80338
      O    O8760    -7.84943   -0.21188   40.88136
      H    H8761    -7.20521   -0.00594   41.55870
      H    H8762    -7.48649   -0.97304   40.42844
      O    O8763    -6.57622   -2.20864   39.59910
      H    H8764    -5.93400   -2.90933   39.71232
      H    H8765    -6.05129   -1.42880   39.41879
      O    O8766    -2.73065   -1.92378   29.32302
      H    H8767    -2.95689   -2.64074   29.91548
      H    H8768    -3.12103   -2.17254   28.48519
      O    O8769    -4.80246   -1.40915   42.80271
      H    H8770    -4.46684   -0.82248   43.48050
      H    H8771    -5.72243   -1.53988   43.03249
      O    O8772    -3.14902   -4.00659   30.98443
      H    H8773    -3.43685   -3.54532   31.77222
      H    H8774    -2.35381   -4.46681   31.25286
      O    O8775    -7.94622   -0.45115   29.57735
      H    H8776    -7.84503   -0.65475   28.64755
      H    H8777    -8.84605   -0.70532   29.78213
      O    O8778    -8.79804   -8.47344   41.55899
      H    H8779    -8.29952   -7.99886   42.22418
      H    H8780    -8.65575   -9.39709   41.76600
      O    O8781    -3.29916   -7.01333   35.84797
      H    H8782    -4.24014   -6.99831   36.02274
      H    H8783    -2.98475   -7.79973   36.29400
      O    O8784    -1.29660    0.15756   37.52339
      H    H8785    -1.17186    0.98067   37.99578
      H    H8786    -0.43004   -0.05337   37.17581
      O    O8787    -5.98255   -2.45673   46.33121
      H    H8788    -6.58874   -2.43357   45.59078
      H    H8789    -6.28714   -3.18843   46.86793
      O    O8790    -4.55252    1.27130   44.94215
      H    H8791    -3.60034    1.18710   44.89217
      H    H8792    -4.69969    1.93547   45.61553
      O    O8793    -1.66160    0.65072   30.44134
      H    H8794    -1.94745    0.23723   29.62676
      H    H8795    -1.85964    1.57949   30.32139
      O    O8796    -6.95660   -4.29395   29.48610
      H    H8797    -7.50559   -3.84702   30.13037
      H    H8798    -6.33467   -4.79902   30.00987
      O    O8799    -2.90311   -2.93974   45.41832
      H    H8800    -2.16216   -2.60216   44.91507
      H    H8801    -3.66584   -2.77053   44.86530
      O    O8802    -8.77632   -6.31110   28.63034
      H    H8803    -8.25576   -7.02619   28.26445
      H    H8804    -8.12948   -5.67251   28.93039
      O    O8805    -4.22854   -4.88826   43.95385
      H    H8806    -3.81444   -4.73375   44.80289
      H    H8807    -5.16344   -4.76273   44.11642
      O    O8808    -3.75632   -7.54864   45.95776
      H    H8809    -3.17425   -8.30341   45.86981
      H    H8810    -3.58015   -7.01790   45.18091
      O    O8811    -7.13063   -7.20459   43.30722
      H    H8812    -7.01101   -7.80048   44.04671
      H    H8813    -6.27123   -7.16762   42.88735
      O    O8814    -4.79184   -6.65087   41.88347
      H    H8815    -5.31832   -6.12661   41.27999
      H    H8816    -4.44870   -6.01813   42.51445
      O    O8817    -8.76005    2.60421   43.29788
      H    H8818    -8.83418    3.50773   43.60511
      H    H8819    -9.66217    2.28540   43.27008
      O    O8820    -8.21152    1.77007   30.92051
      H    H8821    -7.31644    2.10856   30.94239
      H    H8822    -8.17976    1.04801   30.29294
      O    O8823    -1.23209    0.30043   43.62713
      H    H8824    -1.83189    0.35969   42.88352
      H    H8825    -1.10270   -0.63907   43.75682
      O    O8826     0.00806   -1.95779   28.96410
      H    H8827    -0.82265   -1.89012   29.43483
      H    H8828     0.18524   -1.06737   28.66079
      O    O8829    -0.53630   -5.21304   31.46752
      H    H8830     0.22560   -4.64337   31.57349
      H    H8831    -0.52086   -5.78032   32.23835
      O    O8832     0.46970   -4.35803   36.31172
      H    H8833     0.84058   -5.14130   35.90531
      H    H8834     1.10989   -3.66912   36.13345
      O    O8835    -2.54692   -2.97437   41.72475
      H    H8836    -3.36094   -2.54465   41.98733
      H    H8837    -2.13950   -2.36253   41.11165
      O    O8838    -0.48438   -4.91960   28.62478
      H    H8839    -0.20949   -4.01171   28.49670
      H    H8840    -0.67330   -4.98335   29.56097
      O    O8841    -0.58784   -6.98270   33.61772
      H    H8842    -0.96348   -7.74991   33.18585
      H    H8843    -1.31753   -6.60043   34.10521
      O    O8844    -1.19788   -7.83555   43.25167
      H    H8845    -1.42927   -8.06427   42.35147
      H    H8846    -0.93743   -6.91559   43.20616
      O    O8847    -1.31275   -8.75695   36.91844
      H    H8848    -0.78900   -9.25069   36.28746
      H    H8849    -0.72681   -8.62192   37.66320
      O    O8850    -1.13378   -8.67297   40.44040
      H    H8851    -2.08351   -8.70661   40.55490
      H    H8852    -0.95248   -7.76295   40.20537
      O    O8853    -2.48932    1.77749   35.25158
      H    H8854    -1.89341    1.45595   34.57502
      H    H8855    -2.23150    1.30467   36.04290
      O    O8856     0.37796    1.78468   41.80267
      H    H8857    -0.11621    2.18157   41.08539
      H    H8858    -0.23071    1.15960   42.19640
      O    O8859    -1.93810    2.42702   39.08135
      H    H8860    -2.39780    3.17860   38.70715
      H    H8861    -2.56685    1.70767   39.02283
      O    O8862    -8.76897    1.62669   39.08306
      H    H8863    -8.48119    1.37212   38.20636
      H    H8864    -8.25665    1.07443   39.67362
      O    O8865    -8.70174    2.54830   46.44988
      H    H8866    -7.77501    2.31273   46.49348
      H    H8867    -8.71670    3.37550   45.96848
      O    O8868    -0.46723    2.09086   33.44730
      H    H8869    -0.29201    1.40463   32.80340
      H    H8870    -1.16508    2.61557   33.05497
      O    O8871    -2.13398    1.77529   46.27398
      H    H8872    -1.34145    1.28021   46.06658
      H    H8873    -1.84067    2.45430   46.88154
      O    O8874    12.76633   -7.35262   35.92994
      H    H8875    12.68574   -8.26716   35.65911
      H    H8876    12.35278   -6.85591   35.22391
      O    O8877    10.89814   -5.57471   37.81086
      H    H8878    10.12235   -6.05467   38.10072
      H    H8879    11.54943   -6.25415   37.63648
      O    O8880     4.91472   -5.26273   38.68844
      H    H8881     4.08321   -5.51786   39.08809
      H    H8882     5.52282   -5.19166   39.42423
      O    O8883    14.91888   -1.16870   36.59078
      H    H8884    14.45703   -1.93997   36.91949
      H    H8885    15.73144   -1.14209   37.09602
      O    O8886     4.89485   -1.22872   38.88424
      H    H8887     5.19765   -2.11895   38.70526
      H    H8888     5.63921   -0.67170   38.65647
      O    O8889     1.28722   -7.70198   38.35665
      H    H8890     1.85883   -8.46976   38.35701
      H    H8891     1.28737   -7.40310   37.44731
      O    O8892    11.14521    1.11711   36.21118
      H    H8893    10.52636    1.57286   35.64062
      H    H8894    12.00039    1.27225   35.81015
      O    O8895    10.33904   -2.89900   37.81788
      H    H8896    10.26986   -3.84000   37.65679
      H    H8897    11.10102   -2.80885   38.39014
      O    O8898     7.34083   -8.75076   37.83904
      H    H8899     7.84865   -8.25266   38.47954
      H    H8900     7.87215   -9.52724   37.66297
      O    O8901    12.01155   -3.99897   33.60437
      H    H8902    11.39327   -3.53403   33.04064
      H    H8903    12.52387   -3.30622   34.02132
      O    O8904     6.87472   -4.47138   40.28273
      H    H8905     6.54166   -3.84449   40.92483
      H    H8906     7.05139   -3.94520   39.50289
      O    O8907     6.08663   -2.50330   42.09765
      H    H8908     6.70403   -1.82820   41.81609
      H    H8909     5.22594   -2.09451   42.00640
      O    O8910     1.37987   -3.31332   30.97833
      H    H8911     1.00266   -2.82461   30.24682
      H    H8912     1.63717   -2.64079   31.60898
      O    O8913    17.00439   -1.03936   40.01311
      H    H8914    16.32074   -0.36945   40.00478
      H    H8915    17.54382   -0.84130   39.24760
      O    O8916    14.54027    0.80505   38.72763
      H    H8917    14.55298    0.40128   37.85985
      H    H8918    13.98779    1.57978   38.62377
      O    O8919    15.83481   -2.47333   33.81664
      H    H8920    15.72444   -3.41589   33.94159
      H    H8921    15.83163   -2.11176   34.70292
      O    O8922    13.93881   -4.29197   40.05589
      H    H8923    14.35569   -4.50595   39.22123
      H    H8924    14.66279   -4.03469   40.62675
      O    O8925    11.37684   -6.84680   33.17289
      H    H8926    10.44976   -6.91306   33.40174
      H    H8927    11.52932   -5.90878   33.05842
      O    O8928    17.88502   -5.89324   40.14751
      H    H8929    17.05688   -5.82393   39.67253
      H    H8930    18.48007   -5.30781   39.67910
      O    O8931    15.40656   -5.28477   33.67642
      H    H8932    14.78781   -5.62281   33.02905
      H    H8933    15.38901   -5.92879   34.38434
      O    O8934    14.84922   -9.10631   41.09300
      H    H8935    14.43634   -8.28094   41.34700
      H    H8936    14.11682   -9.69181   40.90064
      O    O8937     6.98250   -6.32032   35.95487
      H    H8938     6.57820   -7.03260   35.45946
      H    H8939     7.06881   -6.66500   36.84367
      O    O8940     7.45067   -2.63357   38.11879
      H    H8941     7.15350   -3.23902   37.43957
      H    H8942     8.40065   -2.59583   38.00772
      O    O8943     5.69536   -9.54600   39.73477
      H    H8944     6.24682   -9.43647   38.96010
      H    H8945     6.20971   -9.17224   40.45029
      O    O8946    15.53923    0.93962   41.78110
      H    H8947    15.06229    1.74684   41.58836
      H    H8948    14.85541    0.28745   41.93372
      O    O8949     6.54251   -2.89540   44.76957
      H    H8950     5.64537   -2.67140   45.01691
      H    H8951     6.56780   -2.77190   43.82071
      O    O8952    13.58303   -6.04608   30.68369
      H    H8953    14.02236   -6.88384   30.53748
      H    H8954    14.29588   -5.41314   30.77011
      O    O8955     5.36963   -6.02406   43.34530
      H    H8956     5.23041   -5.15178   43.71404
      H    H8957     4.48777   -6.36678   43.20010
      O    O8958    11.69257   -1.10648   34.65182
      H    H8959    12.13216   -0.36404   34.23736
      H    H8960    11.63126   -0.86382   35.57571
      O    O8961     7.16767   -0.08189   45.55382
      H    H8962     7.13921    0.32240   44.68666
      H    H8963     7.00417   -1.01086   45.39098
      O    O8964     3.68296   -7.42582   33.45553
      H    H8965     3.56272   -6.69961   32.84366
      H    H8966     3.37305   -8.19553   32.97832
      O    O8967    19.11915    0.70082   46.85024
      H    H8968    19.59512    1.17910   47.52914
      H    H8969    19.73987    0.63256   46.12479
      O    O8970     1.32150   -4.25431   39.26240
      H    H8971     1.39954   -4.11943   38.31797
      H    H8972     1.93567   -4.96272   39.45521
      O    O8973     2.56626   -2.55429   35.67301
      H    H8974     2.15907   -2.41283   34.81837
      H    H8975     3.45756   -2.83827   35.47013
      O    O8976    18.52248   -2.10790   44.01024
      H    H8977    18.64878   -2.34671   43.09196
      H    H8978    18.56461   -2.93945   44.48245
      O    O8979    12.38415    1.59490   42.57972
      H    H8980    12.89862    1.50570   43.38196
      H    H8981    11.54106    1.94087   42.87251
      O    O8982    14.35959    1.88043   32.00812
      H    H8983    14.19970    1.59073   32.90630
      H    H8984    14.19426    1.10445   31.47264
      O    O8985     6.83843    1.66029   33.78528
      H    H8986     6.66268    0.74384   33.57206
      H    H8987     5.98400    2.01902   34.02506
      O    O8988    14.06220   -0.61081   30.56792
      H    H8989    13.36872   -0.61308   29.90815
      H    H8990    14.80449   -1.03488   30.13734
      O    O8991    13.62720    1.01546   34.64277
      H    H8992    14.08289    0.23440   34.95663
      H    H8993    13.96645    1.72614   35.18689
      O    O8994     1.37745   -3.21289   41.80184
      H    H8995     1.54056   -3.68236   40.98378
      H    H8996     1.84270   -3.72054   42.46673
      O    O8997    12.53173   -8.49439   45.67098
      H    H8998    12.85707   -9.32802   45.33120
      H    H8999    13.31976   -7.97154   45.81881
      O    O9000     5.94075   -8.95896   34.56602
      H    H9001     5.71484   -9.17524   35.47069
      H    H9002     5.16000   -8.52611   34.22062
      O    O9003    13.17053   -8.95262   33.16509
      H    H9004    12.57142   -8.22904   32.98145
      H    H9005    13.71849   -9.01494   32.38273
      O    O9006     8.38067   -8.06040   45.23205
      H    H9007     8.28503   -9.00093   45.08209
      H    H9008     9.22387   -7.83889   44.83686
      O    O9009    12.36253   -7.72569   39.29049
      H    H9010    11.63064   -7.21701   39.63950
      H    H9011    11.96496   -8.54270   38.98937
      O    O9012     7.87443   -7.73895   30.08475
      H    H9013     7.30612   -8.18713   29.45834
      H    H9014     8.58333   -7.37967   29.55126
      O    O9015     2.95135   -3.83775   43.96142
      H    H9016     2.56683   -4.47838   44.55972
      H    H9017     3.26257   -3.13414   44.53090
      O    O9018     9.10106   -6.99010   39.44228
      H    H9019     9.46808   -7.46424   40.18842
      H    H9020     8.91157   -6.11594   39.78312
      O    O9021     6.89100   -7.94923   41.76071
      H    H9022     6.58671   -7.07003   41.98574
      H    H9023     7.84565   -7.88925   41.79645
      O    O9024     5.41918   -3.74313   32.35739
      H    H9025     4.64541   -4.28337   32.19726
      H    H9026     6.14864   -4.26247   32.01917
      O    O9027    16.17798   -4.74660   38.15003
      H    H9028    16.89789   -4.25107   37.75964
      H    H9029    15.97616   -5.42481   37.50542
      O    O9030    11.55986   -4.67569   44.03693
      H    H9031    11.49359   -5.59612   43.78269
      H    H9032    10.93037   -4.57815   44.75139
      O    O9033    14.35381   -8.98084   30.58918
      H    H9034    15.24177   -8.66911   30.41432
      H    H9035    14.32432   -9.85361   30.19724
      O    O9036     5.46292   -4.07509   35.99527
      H    H9037     5.98079   -4.87827   35.94096
      H    H9038     5.01132   -4.13718   36.83695
      O    O9039    10.34987   -2.80847   31.26800
      H    H9040    10.69144   -2.06424   30.77233
      H    H9041     9.52114   -2.49535   31.63048
      O    O9042     2.94737   -7.10896   42.90784
      H    H9043     2.58887   -6.44357   43.49518
      H    H9044     2.65283   -7.94060   43.27910
      O    O9045     6.14869   -6.65053   45.79180
      H    H9046     5.84870   -6.50482   44.89458
      H    H9047     6.91981   -7.21000   45.69914
      O    O9048    11.49153   -1.85363   43.78731
      H    H9049    11.50598   -2.78554   43.56920
      H    H9050    10.78404   -1.76766   44.42629
      O    O9051    16.62524   -7.66965   30.05717
      H    H9052    16.54161   -7.23823   29.20681
      H    H9053    17.34466   -7.20982   30.48985
      O    O9054    17.70265   -5.21290   43.13417
      H    H9055    16.97747   -4.62002   42.93711
      H    H9056    18.23020   -5.22055   42.33550
      O    O9057    17.65396   -0.81543   32.78538
      H    H9058    17.01158   -1.46986   33.05976
      H    H9059    17.26703   -0.40992   32.00945
      O    O9060    13.23261   -3.48688   36.63255
      H    H9061    13.58499   -4.08407   35.97269
      H    H9062    12.34884   -3.81246   36.80338
      O    O9063     9.31894   -2.72711   34.03959
      H    H9064    10.00605   -2.18019   34.42035
      H    H9065     8.53218   -2.18304   34.07455
      O    O9066     1.45818   -7.10983   29.53130
      H    H9067     2.32766   -6.82735   29.81489
      H    H9068     0.96721   -6.29624   29.41618
      O    O9069     8.62166   -5.72251   33.65213
      H    H9070     9.07794   -4.91199   33.87815
      H    H9071     8.27048   -6.04020   34.48398
      O    O9072    10.92492   -0.21188   40.88136
      H    H9073    11.56914   -0.00594   41.55870
      H    H9074    11.28786   -0.97304   40.42844
      O    O9075    12.19813   -2.20864   39.59910
      H    H9076    12.84035   -2.90933   39.71232
      H    H9077    12.72306   -1.42880   39.41879
      O    O9078    16.04370   -1.92378   29.32302
      H    H9079    15.81746   -2.64074   29.91548
      H    H9080    15.65332   -2.17254   28.48519
      O    O9081    13.97189   -1.40915   42.80271
      H    H9082    14.30751   -0.82248   43.48050
      H    H9083    13.05192   -1.53988   43.03249
      O    O9084     1.82530    2.10291   30.09746
      H    H9085     2.18507    2.70184   29.44319
      H    H9086     1.68454    2.64890   30.87097
      O    O9087    15.62533   -4.00659   30.98443
      H    H9088    15.33750   -3.54532   31.77222
      H    H9089    16.42054   -4.46681   31.25286
      O    O9090     1.80949    0.36839   44.57170
      H    H9091     1.91860   -0.57213   44.43124
      H    H9092     1.15755    0.63387   43.92308
      O    O9093     9.80075   -1.36002   45.97152
      H    H9094     9.48044   -2.07909   46.51609
      H    H9095     9.12658   -0.68451   46.04512
      O    O9096     7.84217   -0.51397   30.91483
      H    H9097     7.83318    0.21900   30.29928
      H    H9098     6.92200   -0.76082   31.00753
      O    O9099     3.44283   -5.29248   31.65951
      H    H9100     2.83562   -4.55259   31.66904
      H    H9101     3.91776   -5.20255   30.83333
      O    O9102    10.82813   -0.45115   29.57735
      H    H9103    10.92932   -0.65475   28.64755
      H    H9104     9.92830   -0.70532   29.78213
      O    O9105     9.97631   -8.47344   41.55899
      H    H9106    10.47483   -7.99886   42.22418
      H    H9107    10.11860   -9.39709   41.76600
      O    O9108     9.46994    2.06748   34.27212
      H    H9109     9.72409    2.02962   33.35005
      H    H9110     8.52118    1.94082   34.26494
      O    O9111    15.47519   -7.01333   35.84797
      H    H9112    14.53421   -6.99831   36.02274
      H    H9113    15.78960   -7.79973   36.29400
      O    O9114     5.45336   -5.33137   29.40836
      H    H9115     6.21969   -5.44323   29.97091
      H    H9116     5.53083   -6.02757   28.75604
      O    O9117     4.14803   -7.89886   30.09165
      H    H9118     4.22839   -8.84611   30.20339
      H    H9119     5.04001   -7.56817   30.19772
      O    O9120    17.47775    0.15756   37.52339
      H    H9121    17.60249    0.98067   37.99578
      H    H9122    18.34431   -0.05337   37.17581
      O    O9123     4.94951    2.25068   37.19511
      H    H9124     5.68575    1.70222   37.46596
      H    H9125     5.33360    3.11628   37.05571
      O    O9126     1.83405   -1.68197   33.06926
      H    H9127     0.90803   -1.43985   33.05980
      H    H9128     2.29970   -0.85454   32.94773
      O    O9129     3.95533    1.43528   46.38367
      H    H9130     4.75661    1.75649   46.79721
      H    H9131     3.44052    1.07484   47.10566
      O    O9132     8.05974    1.42371   29.01766
      H    H9133     8.85260    1.71259   28.56584
      H    H9134     7.54017    0.99292   28.33891
      O    O9135    12.79180   -2.45673   46.33121
      H    H9136    12.18561   -2.43357   45.59078
      H    H9137    12.48721   -3.18843   46.86793
      O    O9138    14.22183    1.27130   44.94215
      H    H9139    15.17401    1.18710   44.89217
      H    H9140    14.07466    1.93547   45.61553
      O    O9141    17.11275    0.65072   30.44134
      H    H9142    16.82690    0.23723   29.62676
      H    H9143    16.91471    1.57949   30.32139
      O    O9144     1.67511   -6.07737   45.32727
      H    H9145     2.17902   -6.65664   45.89889
      H    H9146     0.93586   -5.79335   45.86491
      O    O9147     8.57748   -3.35595   28.88190
      H    H9148     8.47254   -3.97072   29.60804
      H    H9149     8.40990   -3.87936   28.09820
      O    O9150     8.72891   -4.67027   44.86082
      H    H9151     7.96348   -4.10177   44.77629
      H    H9152     8.91050   -4.96265   43.96765
      O    O9153    11.81775   -4.29395   29.48610
      H    H9154    11.26876   -3.84702   30.13037
      H    H9155    12.43968   -4.79902   30.00987
      O    O9156    15.87124   -2.93974   45.41832
      H    H9157    16.61219   -2.60216   44.91507
      H    H9158    15.10851   -2.77053   44.86530
      O    O9159     3.70742   -7.93441   46.22228
      H    H9160     3.74796   -8.23302   47.13080
      H    H9161     4.56197   -7.53365   46.06303
      O    O9162     7.48526   -5.33486   31.38263
      H    H9163     7.90690   -5.50087   32.22577
      H    H9164     7.61035   -6.14483   30.88814
      O    O9165     5.64800   -9.35520   44.18973
      H    H9166     5.11765   -9.84611   43.56206
      H    H9167     6.31681   -8.92678   43.65552
      O    O9168     9.99803   -6.31110   28.63034
      H    H9169    10.51859   -7.02619   28.26445
      H    H9170    10.64487   -5.67251   28.93039
      O    O9171    14.54581   -4.88826   43.95385
      H    H9172    14.95991   -4.73375   44.80289
      H    H9173    13.61091   -4.76273   44.11642
      O    O9174    15.01803   -7.54864   45.95776
      H    H9175    15.60010   -8.30341   45.86981
      H    H9176    15.19420   -7.01790   45.18091
      O    O9177     9.30733   -4.93621   41.92344
      H    H9178     9.72614   -4.09293   41.75106
      H    H9179     8.38820   -4.79900   41.69412
      O    O9180    11.64372   -7.20459   43.30722
      H    H9181    11.76334   -7.80048   44.04671
      H    H9182    12.50312   -7.16762   42.88735
      O    O9183    13.98251   -6.65087   41.88347
      H    H9184    13.45603   -6.12661   41.27999
      H    H9185    14.32565   -6.01813   42.51445
      O    O9186     7.15807    1.36909   43.03921
      H    H9187     6.62018    2.09370   42.72008
      H    H9188     7.41147    0.89213   42.24895
      O    O9189    10.01430    2.60421   43.29788
      H    H9190     9.94017    3.50773   43.60511
      H    H9191     9.11218    2.28540   43.27008
      O    O9192    10.56283    1.77007   30.92051
      H    H9193    11.45791    2.10856   30.94239
      H    H9194    10.59459    1.04801   30.29294
      O    O9195     4.20244   -2.85723   29.14921
      H    H9196     4.63993   -2.31426   29.80497
      H    H9197     4.68722   -3.68253   29.15885
      O    O9198     1.41702   -0.06833   36.60124
      H    H9199     1.74733   -0.93622   36.36910
      H    H9200     1.84612    0.13753   37.43173
      O    O9201     6.01322   -1.73743   34.26144
      H    H9202     5.71277   -1.86093   35.16183
      H    H9203     5.90697   -2.59657   33.85301
      O    O9204     1.90605    0.79873   39.33940
      H    H9205     1.46914    0.97881   40.17182
      H    H9206     2.47381    1.55619   39.19757
      O    O9207    17.54226    0.30043   43.62713
      H    H9208    16.94246    0.35969   42.88352
      H    H9209    17.67165   -0.63907   43.75682
      O    O9210    18.78241   -1.95779   28.96410
      H    H9211    17.95170   -1.89012   29.43483
      H    H9212    18.95959   -1.06737   28.66079
      O    O9213    18.23805   -5.21304   31.46752
      H    H9214    18.99995   -4.64337   31.57349
      H    H9215    18.25349   -5.78032   32.23835
      O    O9216     1.73849   -6.68924   35.69829
      H    H9217     1.08337   -6.95808   35.05426
      H    H9218     2.57628   -6.79880   35.24849
      O    O9219    19.24405   -4.35803   36.31172
      H    H9220    19.61493   -5.14130   35.90531
      H    H9221    19.88424   -3.66912   36.13345
      O    O9222    16.22743   -2.97437   41.72475
      H    H9223    15.41341   -2.54465   41.98733
      H    H9224    16.63485   -2.36253   41.11165
      O    O9225    18.28997   -4.91960   28.62478
      H    H9226    18.56486   -4.01171   28.49670
      H    H9227    18.10105   -4.98335   29.56097
      O    O9228    18.18651   -6.98270   33.61772
      H    H9229    17.81087   -7.74991   33.18585
      H    H9230    17.45682   -6.60043   34.10521
      O    O9231     2.77608   -6.30399   40.23862
      H    H9232     3.14339   -6.39125   41.11823
      H    H9233     2.20716   -7.06733   40.13931
      O    O9234    17.57647   -7.83555   43.25167
      H    H9235    17.34508   -8.06427   42.35147
      H    H9236    17.83692   -6.91559   43.20616
      O    O9237     2.32768   -9.39308   44.14447
      H    H9238     1.43329   -9.42640   44.48384
      H    H9239     2.86744   -9.19440   44.90959
      O    O9240     0.95230   -9.47935   31.64082
      H    H9241     0.04870   -9.21633   31.46599
      H    H9242     1.43636   -9.20823   30.86082
      O    O9243    17.46160   -8.75695   36.91844
      H    H9244    17.98535   -9.25069   36.28746
      H    H9245    18.04754   -8.62192   37.66320
      O    O9246    17.64057   -8.67297   40.44040
      H    H9247    16.69084   -8.70661   40.55490
      H    H9248    17.82187   -7.76295   40.20537
      O    O9249    16.28503    1.77749   35.25158
      H    H9250    16.88094    1.45595   34.57502
      H    H9251    16.54285    1.30467   36.04290
      O    O9252     4.19129   -1.79072   45.40064
      H    H9253     4.14825   -2.16143   46.28208
      H    H9254     4.32239   -0.85296   45.54082
      O    O9255     7.89189   -0.23476   41.00161
      H    H9256     7.65103    0.03270   40.11466
      H    H9257     8.83216   -0.06419   41.05670
      O    O9258    19.15231    1.78468   41.80267
      H    H9259    18.65814    2.18157   41.08539
      H    H9260    18.54364    1.15960   42.19640
      O    O9261     4.03009    1.15551   42.52042
      H    H9262     3.43612    1.02398   43.25942
      H    H9263     4.02248    0.31932   42.05463
      O    O9264    16.83625    2.42702   39.08135
      H    H9265    16.37655    3.17860   38.70715
      H    H9266    16.20750    1.70767   39.02283
      O    O9267     3.66132   -1.47866   41.47122
      H    H9268     2.93472   -2.09813   41.40382
      H    H9269     3.72223   -1.08459   40.60103
      O    O9270     7.26583    0.73584   38.25616
      H    H9271     7.78233    0.12458   37.73099
      H    H9272     7.91556    1.23872   38.74726
      O    O9273    10.00538    1.62669   39.08306
      H    H9274    10.29316    1.37212   38.20636
      H    H9275    10.51770    1.07443   39.67362
      O    O9276     1.94432    1.83878   34.68090
      H    H9277     1.77652    1.20585   35.37909
      H    H9278     1.07777    2.04472   34.33032
      O    O9279     3.55059    0.53211   32.12591
      H    H9280     3.02535    0.91291   31.42211
      H    H9281     3.47504    1.15718   32.84688
      O    O9282    10.07261    2.54830   46.44988
      H    H9283    10.99934    2.31273   46.49348
      H    H9284    10.05765    3.37550   45.96848
      O    O9285    18.30712    2.09086   33.44730
      H    H9286    18.48234    1.40463   32.80340
      H    H9287    17.60927    2.61557   33.05497
      O    O9288     6.14988    2.48034   31.00084
      H    H9289     6.88176    2.19627   30.45322
      H    H9290     6.40925    2.24167   31.89077
      O    O9291     5.31136   -1.40318   31.00547
      H    H9292     4.68225   -0.93467   31.55405
      H    H9293     5.42614   -2.24826   31.44009
      O    O9294    16.64037    1.77529   46.27398
      H    H9295    17.43290    1.28021   46.06658
      H    H9296    16.93368    2.45430   46.88154
      O    O9297    31.54068   -7.35262   35.92994
      H    H9298    31.46009   -8.26716   35.65911
      H    H9299    31.12713   -6.85591   35.22391
      O    O9300    29.67249   -5.57471   37.81086
      H    H9301    28.89670   -6.05467   38.10072
      H    H9302    30.32378   -6.25415   37.63648
      O    O9303    23.68907   -5.26273   38.68844
      H    H9304    22.85756   -5.51786   39.08809
      H    H9305    24.29717   -5.19166   39.42423
      O    O9306    33.69323   -1.16870   36.59078
      H    H9307    33.23138   -1.93997   36.91949
      H    H9308    34.50579   -1.14209   37.09602
      O    O9309    23.66920   -1.22872   38.88424
      H    H9310    23.97200   -2.11895   38.70526
      H    H9311    24.41356   -0.67170   38.65647
      O    O9312    20.06157   -7.70198   38.35665
      H    H9313    20.63318   -8.46976   38.35701
      H    H9314    20.06172   -7.40310   37.44731
      O    O9315    29.91956    1.11711   36.21118
      H    H9316    29.30071    1.57286   35.64062
      H    H9317    30.77474    1.27225   35.81015
      O    O9318    29.11339   -2.89900   37.81788
      H    H9319    29.04421   -3.84000   37.65679
      H    H9320    29.87537   -2.80885   38.39014
      O    O9321    26.11518   -8.75076   37.83904
      H    H9322    26.62300   -8.25266   38.47954
      H    H9323    26.64650   -9.52724   37.66297
      O    O9324    30.78590   -3.99897   33.60437
      H    H9325    30.16762   -3.53403   33.04064
      H    H9326    31.29822   -3.30622   34.02132
      O    O9327    25.64907   -4.47138   40.28273
      H    H9328    25.31601   -3.84449   40.92483
      H    H9329    25.82574   -3.94520   39.50289
      O    O9330    24.86098   -2.50330   42.09765
      H    H9331    25.47838   -1.82820   41.81609
      H    H9332    24.00029   -2.09451   42.00640
      O    O9333    20.15422   -3.31332   30.97833
      H    H9334    19.77701   -2.82461   30.24682
      H    H9335    20.41152   -2.64079   31.60898
      O    O9336    35.77874   -1.03936   40.01311
      H    H9337    35.09509   -0.36945   40.00478
      H    H9338    36.31817   -0.84130   39.24760
      O    O9339    33.31462    0.80505   38.72763
      H    H9340    33.32733    0.40128   37.85985
      H    H9341    32.76214    1.57978   38.62377
      O    O9342    34.60916   -2.47333   33.81664
      H    H9343    34.49879   -3.41589   33.94159
      H    H9344    34.60598   -2.11176   34.70292
      O    O9345    32.71316   -4.29197   40.05589
      H    H9346    33.13004   -4.50595   39.22123
      H    H9347    33.43714   -4.03469   40.62675
      O    O9348    30.15119   -6.84680   33.17289
      H    H9349    29.22411   -6.91306   33.40174
      H    H9350    30.30367   -5.90878   33.05842
      O    O9351    36.65937   -5.89324   40.14751
      H    H9352    35.83123   -5.82393   39.67253
      H    H9353    37.25442   -5.30781   39.67910
      O    O9354    34.18091   -5.28477   33.67642
      H    H9355    33.56216   -5.62281   33.02905
      H    H9356    34.16336   -5.92879   34.38434
      O    O9357    33.62357   -9.10631   41.09300
      H    H9358    33.21069   -8.28094   41.34700
      H    H9359    32.89117   -9.69181   40.90064
      O    O9360    25.75685   -6.32032   35.95487
      H    H9361    25.35255   -7.03260   35.45946
      H    H9362    25.84316   -6.66500   36.84367
      O    O9363    26.22502   -2.63357   38.11879
      H    H9364    25.92785   -3.23902   37.43957
      H    H9365    27.17500   -2.59583   38.00772
      O    O9366    24.46971   -9.54600   39.73477
      H    H9367    25.02117   -9.43647   38.96010
      H    H9368    24.98406   -9.17224   40.45029
      O    O9369    34.31358    0.93962   41.78110
      H    H9370    33.83664    1.74684   41.58836
      H    H9371    33.62976    0.28745   41.93372
      O    O9372    25.31686   -2.89540   44.76957
      H    H9373    24.41972   -2.67140   45.01691
      H    H9374    25.34215   -2.77190   43.82071
      O    O9375    32.35738   -6.04608   30.68369
      H    H9376    32.79671   -6.88384   30.53748
      H    H9377    33.07023   -5.41314   30.77011
      O    O9378    24.14398   -6.02406   43.34530
      H    H9379    24.00476   -5.15178   43.71404
      H    H9380    23.26212   -6.36678   43.20010
      O    O9381    30.46692   -1.10648   34.65182
      H    H9382    30.90651   -0.36404   34.23736
      H    H9383    30.40561   -0.86382   35.57571
      O    O9384    25.94202   -0.08189   45.55382
      H    H9385    25.91356    0.32240   44.68666
      H    H9386    25.77852   -1.01086   45.39098
      O    O9387    22.45731   -7.42582   33.45553
      H    H9388    22.33707   -6.69961   32.84366
      H    H9389    22.14740   -8.19553   32.97832
      O    O9390    37.89350    0.70082   46.85024
      H    H9391    38.36947    1.17910   47.52914
      H    H9392    38.51422    0.63256   46.12479
      O    O9393    20.09585   -4.25431   39.26240
      H    H9394    20.17389   -4.11943   38.31797
      H    H9395    20.71002   -4.96272   39.45521
      O    O9396    21.34061   -2.55429   35.67301
      H    H9397    20.93342   -2.41283   34.81837
      H    H9398    22.23191   -2.83827   35.47013
      O    O9399    37.29683   -2.10790   44.01024
      H    H9400    37.42313   -2.34671   43.09196
      H    H9401    37.33896   -2.93945   44.48245
      O    O9402    31.15850    1.59490   42.57972
      H    H9403    31.67297    1.50570   43.38196
      H    H9404    30.31541    1.94087   42.87251
      O    O9405    33.13394    1.88043   32.00812
      H    H9406    32.97405    1.59073   32.90630
      H    H9407    32.96861    1.10445   31.47264
      O    O9408    25.61278    1.66029   33.78528
      H    H9409    25.43703    0.74384   33.57206
      H    H9410    24.75835    2.01902   34.02506
      O    O9411    32.83655   -0.61081   30.56792
      H    H9412    32.14307   -0.61308   29.90815
      H    H9413    33.57884   -1.03488   30.13734
      O    O9414    32.40155    1.01546   34.64277
      H    H9415    32.85724    0.23440   34.95663
      H    H9416    32.74080    1.72614   35.18689
      O    O9417    20.15180   -3.21289   41.80184
      H    H9418    20.31491   -3.68236   40.98378
      H    H9419    20.61705   -3.72054   42.46673
      O    O9420    31.30608   -8.49439   45.67098
      H    H9421    31.63142   -9.32802   45.33120
      H    H9422    32.09411   -7.97154   45.81881
      O    O9423    24.71510   -8.95896   34.56602
      H    H9424    24.48919   -9.17524   35.47069
      H    H9425    23.93435   -8.52611   34.22062
      O    O9426    31.94488   -8.95262   33.16509
      H    H9427    31.34577   -8.22904   32.98145
      H    H9428    32.49284   -9.01494   32.38273
      O    O9429    27.15502   -8.06040   45.23205
      H    H9430    27.05938   -9.00093   45.08209
      H    H9431    27.99822   -7.83889   44.83686
      O    O9432    31.13688   -7.72569   39.29049
      H    H9433    30.40499   -7.21701   39.63950
      H    H9434    30.73931   -8.54270   38.98937
      O    O9435    26.64878   -7.73895   30.08475
      H    H9436    26.08047   -8.18713   29.45834
      H    H9437    27.35768   -7.37967   29.55126
      O    O9438    21.72570   -3.83775   43.96142
      H    H9439    21.34118   -4.47838   44.55972
      H    H9440    22.03692   -3.13414   44.53090
      O    O9441    27.87541   -6.99010   39.44228
      H    H9442    28.24243   -7.46424   40.18842
      H    H9443    27.68592   -6.11594   39.78312
      O    O9444    25.66535   -7.94923   41.76071
      H    H9445    25.36106   -7.07003   41.98574
      H    H9446    26.62000   -7.88925   41.79645
      O    O9447    24.19353   -3.74313   32.35739
      H    H9448    23.41976   -4.28337   32.19726
      H    H9449    24.92299   -4.26247   32.01917
      O    O9450    34.95233   -4.74660   38.15003
      H    H9451    35.67224   -4.25107   37.75964
      H    H9452    34.75051   -5.42481   37.50542
      O    O9453    30.33421   -4.67569   44.03693
      H    H9454    30.26794   -5.59612   43.78269
      H    H9455    29.70472   -4.57815   44.75139
      O    O9456    33.12816   -8.98084   30.58918
      H    H9457    34.01612   -8.66911   30.41432
      H    H9458    33.09867   -9.85361   30.19724
      O    O9459    24.23727   -4.07509   35.99527
      H    H9460    24.75514   -4.87827   35.94096
      H    H9461    23.78567   -4.13718   36.83695
      O    O9462    29.12422   -2.80847   31.26800
      H    H9463    29.46579   -2.06424   30.77233
      H    H9464    28.29549   -2.49535   31.63048
      O    O9465    21.72172   -7.10896   42.90784
      H    H9466    21.36322   -6.44357   43.49518
      H    H9467    21.42718   -7.94060   43.27910
      O    O9468    24.92304   -6.65053   45.79180
      H    H9469    24.62305   -6.50482   44.89458
      H    H9470    25.69416   -7.21000   45.69914
      O    O9471    30.26588   -1.85363   43.78731
      H    H9472    30.28033   -2.78554   43.56920
      H    H9473    29.55839   -1.76766   44.42629
      O    O9474    35.39959   -7.66965   30.05717
      H    H9475    35.31596   -7.23823   29.20681
      H    H9476    36.11901   -7.20982   30.48985
      O    O9477    36.47700   -5.21290   43.13417
      H    H9478    35.75182   -4.62002   42.93711
      H    H9479    37.00455   -5.22055   42.33550
      O    O9480    36.42831   -0.81543   32.78538
      H    H9481    35.78593   -1.46986   33.05976
      H    H9482    36.04138   -0.40992   32.00945
      O    O9483    32.00696   -3.48688   36.63255
      H    H9484    32.35934   -4.08407   35.97269
      H    H9485    31.12319   -3.81246   36.80338
      O    O9486    28.09329   -2.72711   34.03959
      H    H9487    28.78040   -2.18019   34.42035
      H    H9488    27.30653   -2.18304   34.07455
      O    O9489    20.23253   -7.10983   29.53130
      H    H9490    21.10201   -6.82735   29.81489
      H    H9491    19.74156   -6.29624   29.41618
      O    O9492    27.39601   -5.72251   33.65213
      H    H9493    27.85229   -4.91199   33.87815
      H    H9494    27.04483   -6.04020   34.48398
      O    O9495    29.69927   -0.21188   40.88136
      H    H9496    30.34349   -0.00594   41.55870
      H    H9497    30.06221   -0.97304   40.42844
      O    O9498    30.97248   -2.20864   39.59910
      H    H9499    31.61470   -2.90933   39.71232
      H    H9500    31.49741   -1.42880   39.41879
      O    O9501    34.81805   -1.92378   29.32302
      H    H9502    34.59181   -2.64074   29.91548
      H    H9503    34.42767   -2.17254   28.48519
      O    O9504    32.74624   -1.40915   42.80271
      H    H9505    33.08186   -0.82248   43.48050
      H    H9506    31.82627   -1.53988   43.03249
      O    O9507    20.59965    2.10291   30.09746
      H    H9508    20.95942    2.70184   29.44319
      H    H9509    20.45889    2.64890   30.87097
      O    O9510    34.39968   -4.00659   30.98443
      H    H9511    34.11185   -3.54532   31.77222
      H    H9512    35.19489   -4.46681   31.25286
      O    O9513    20.58384    0.36839   44.57170
      H    H9514    20.69295   -0.57213   44.43124
      H    H9515    19.93190    0.63387   43.92308
      O    O9516    28.57510   -1.36002   45.97152
      H    H9517    28.25479   -2.07909   46.51609
      H    H9518    27.90093   -0.68451   46.04512
      O    O9519    26.61652   -0.51397   30.91483
      H    H9520    26.60753    0.21900   30.29928
      H    H9521    25.69635   -0.76082   31.00753
      O    O9522    22.21718   -5.29248   31.65951
      H    H9523    21.60997   -4.55259   31.66904
      H    H9524    22.69211   -5.20255   30.83333
      O    O9525    29.60248   -0.45115   29.57735
      H    H9526    29.70367   -0.65475   28.64755
      H    H9527    28.70265   -0.70532   29.78213
      O    O9528    28.75066   -8.47344   41.55899
      H    H9529    29.24918   -7.99886   42.22418
      H    H9530    28.89295   -9.39709   41.76600
      O    O9531    28.24429    2.06748   34.27212
      H    H9532    28.49844    2.02962   33.35005
      H    H9533    27.29553    1.94082   34.26494
      O    O9534    34.24954   -7.01333   35.84797
      H    H9535    33.30856   -6.99831   36.02274
      H    H9536    34.56395   -7.79973   36.29400
      O    O9537    24.22771   -5.33137   29.40836
      H    H9538    24.99404   -5.44323   29.97091
      H    H9539    24.30518   -6.02757   28.75604
      O    O9540    22.92238   -7.89886   30.09165
      H    H9541    23.00274   -8.84611   30.20339
      H    H9542    23.81436   -7.56817   30.19772
      O    O9543    36.25210    0.15756   37.52339
      H    H9544    36.37684    0.98067   37.99578
      H    H9545    37.11866   -0.05337   37.17581
      O    O9546    23.72386    2.25068   37.19511
      H    H9547    24.46010    1.70222   37.46596
      H    H9548    24.10795    3.11628   37.05571
      O    O9549    20.60840   -1.68197   33.06926
      H    H9550    19.68238   -1.43985   33.05980
      H    H9551    21.07405   -0.85454   32.94773
      O    O9552    22.72968    1.43528   46.38367
      H    H9553    23.53096    1.75649   46.79721
      H    H9554    22.21487    1.07484   47.10566
      O    O9555    26.83409    1.42371   29.01766
      H    H9556    27.62695    1.71259   28.56584
      H    H9557    26.31452    0.99292   28.33891
      O    O9558    31.56615   -2.45673   46.33121
      H    H9559    30.95996   -2.43357   45.59078
      H    H9560    31.26156   -3.18843   46.86793
      O    O9561    32.99618    1.27130   44.94215
      H    H9562    33.94836    1.18710   44.89217
      H    H9563    32.84901    1.93547   45.61553
      O    O9564    35.88710    0.65072   30.44134
      H    H9565    35.60125    0.23723   29.62676
      H    H9566    35.68906    1.57949   30.32139
      O    O9567    20.44946   -6.07737   45.32727
      H    H9568    20.95337   -6.65664   45.89889
      H    H9569    19.71021   -5.79335   45.86491
      O    O9570    27.35183   -3.35595   28.88190
      H    H9571    27.24689   -3.97072   29.60804
      H    H9572    27.18425   -3.87936   28.09820
      O    O9573    27.50326   -4.67027   44.86082
      H    H9574    26.73783   -4.10177   44.77629
      H    H9575    27.68485   -4.96265   43.96765
      O    O9576    30.59210   -4.29395   29.48610
      H    H9577    30.04311   -3.84702   30.13037
      H    H9578    31.21403   -4.79902   30.00987
      O    O9579    34.64559   -2.93974   45.41832
      H    H9580    35.38654   -2.60216   44.91507
      H    H9581    33.88286   -2.77053   44.86530
      O    O9582    22.48177   -7.93441   46.22228
      H    H9583    22.52231   -8.23302   47.13080
      H    H9584    23.33632   -7.53365   46.06303
      O    O9585    26.25961   -5.33486   31.38263
      H    H9586    26.68125   -5.50087   32.22577
      H    H9587    26.38470   -6.14483   30.88814
      O    O9588    24.42235   -9.35520   44.18973
      H    H9589    23.89200   -9.84611   43.56206
      H    H9590    25.09116   -8.92678   43.65552
      O    O9591    28.77238   -6.31110   28.63034
      H    H9592    29.29294   -7.02619   28.26445
      H    H9593    29.41922   -5.67251   28.93039
      O    O9594    33.32016   -4.88826   43.95385
      H    H9595    33.73426   -4.73375   44.80289
      H    H9596    32.38526   -4.76273   44.11642
      O    O9597    33.79238   -7.54864   45.95776
      H    H9598    34.37445   -8.30341   45.86981
      H    H9599    33.96855   -7.01790   45.18091
      O    O9600    28.08168   -4.93621   41.92344
      H    H9601    28.50049   -4.09293   41.75106
      H    H9602    27.16255   -4.79900   41.69412
      O    O9603    30.41807   -7.20459   43.30722
      H    H9604    30.53769   -7.80048   44.04671
      H    H9605    31.27747   -7.16762   42.88735
      O    O9606    32.75686   -6.65087   41.88347
      H    H9607    32.23038   -6.12661   41.27999
      H    H9608    33.10000   -6.01813   42.51445
      O    O9609    25.93242    1.36909   43.03921
      H    H9610    25.39453    2.09370   42.72008
      H    H9611    26.18582    0.89213   42.24895
      O    O9612    28.78865    2.60421   43.29788
      H    H9613    28.71452    3.50773   43.60511
      H    H9614    27.88653    2.28540   43.27008
      O    O9615    29.33718    1.77007   30.92051
      H    H9616    30.23226    2.10856   30.94239
      H    H9617    29.36894    1.04801   30.29294
      O    O9618    22.97679   -2.85723   29.14921
      H    H9619    23.41428   -2.31426   29.80497
      H    H9620    23.46157   -3.68253   29.15885
      O    O9621    20.19137   -0.06833   36.60124
      H    H9622    20.52168   -0.93622   36.36910
      H    H9623    20.62047    0.13753   37.43173
      O    O9624    24.78757   -1.73743   34.26144
      H    H9625    24.48712   -1.86093   35.16183
      H    H9626    24.68132   -2.59657   33.85301
      O    O9627    20.68040    0.79873   39.33940
      H    H9628    20.24349    0.97881   40.17182
      H    H9629    21.24816    1.55619   39.19757
      O    O9630    36.31661    0.30043   43.62713
      H    H9631    35.71681    0.35969   42.88352
      H    H9632    36.44600   -0.63907   43.75682
      O    O9633    37.55676   -1.95779   28.96410
      H    H9634    36.72605   -1.89012   29.43483
      H    H9635    37.73394   -1.06737   28.66079
      O    O9636    37.01240   -5.21304   31.46752
      H    H9637    37.77430   -4.64337   31.57349
      H    H9638    37.02784   -5.78032   32.23835
      O    O9639    20.51284   -6.68924   35.69829
      H    H9640    19.85772   -6.95808   35.05426
      H    H9641    21.35063   -6.79880   35.24849
      O    O9642    38.01840   -4.35803   36.31172
      H    H9643    38.38928   -5.14130   35.90531
      H    H9644    38.65859   -3.66912   36.13345
      O    O9645    35.00178   -2.97437   41.72475
      H    H9646    34.18776   -2.54465   41.98733
      H    H9647    35.40920   -2.36253   41.11165
      O    O9648    37.06432   -4.91960   28.62478
      H    H9649    37.33921   -4.01171   28.49670
      H    H9650    36.87540   -4.98335   29.56097
      O    O9651    36.96086   -6.98270   33.61772
      H    H9652    36.58522   -7.74991   33.18585
      H    H9653    36.23117   -6.60043   34.10521
      O    O9654    21.55043   -6.30399   40.23862
      H    H9655    21.91774   -6.39125   41.11823
      H    H9656    20.98151   -7.06733   40.13931
      O    O9657    36.35082   -7.83555   43.25167
      H    H9658    36.11943   -8.06427   42.35147
      H    H9659    36.61127   -6.91559   43.20616
      O    O9660    21.10203   -9.39308   44.14447
      H    H9661    20.20764   -9.42640   44.48384
      H    H9662    21.64179   -9.19440   44.90959
      O    O9663    19.72665   -9.47935   31.64082
      H    H9664    18.82305   -9.21633   31.46599
      H    H9665    20.21071   -9.20823   30.86082
      O    O9666    36.23595   -8.75695   36.91844
      H    H9667    36.75970   -9.25069   36.28746
      H    H9668    36.82189   -8.62192   37.66320
      O    O9669    36.41492   -8.67297   40.44040
      H    H9670    35.46519   -8.70661   40.55490
      H    H9671    36.59622   -7.76295   40.20537
      O    O9672    35.05938    1.77749   35.25158
      H    H9673    35.65529    1.45595   34.57502
      H    H9674    35.31720    1.30467   36.04290
      O    O9675    22.96564   -1.79072   45.40064
      H    H9676    22.92260   -2.16143   46.28208
      H    H9677    23.09674   -0.85296   45.54082
      O    O9678    26.66624   -0.23476   41.00161
      H    H9679    26.42538    0.03270   40.11466
      H    H9680    27.60651   -0.06419   41.05670
      O    O9681    37.92666    1.78468   41.80267
      H    H9682    37.43249    2.18157   41.08539
      H    H9683    37.31799    1.15960   42.19640
      O    O9684    22.80444    1.15551   42.52042
      H    H9685    22.21047    1.02398   43.25942
      H    H9686    22.79683    0.31932   42.05463
      O    O9687    35.61060    2.42702   39.08135
      H    H9688    35.15090    3.17860   38.70715
      H    H9689    34.98185    1.70767   39.02283
      O    O9690    22.43567   -1.47866   41.47122
      H    H9691    21.70907   -2.09813   41.40382
      H    H9692    22.49658   -1.08459   40.60103
      O    O9693    26.04018    0.73584   38.25616
      H    H9694    26.55668    0.12458   37.73099
      H    H9695    26.68991    1.23872   38.74726
      O    O9696    28.77973    1.62669   39.08306
      H    H9697    29.06751    1.37212   38.20636
      H    H9698    29.29205    1.07443   39.67362
      O    O9699    20.71867    1.83878   34.68090
      H    H9700    20.55087    1.20585   35.37909
      H    H9701    19.85212    2.04472   34.33032
      O    O9702    22.32494    0.53211   32.12591
      H    H9703    21.79970    0.91291   31.42211
      H    H9704    22.24939    1.15718   32.84688
      O    O9705    28.84696    2.54830   46.44988
      H    H9706    29.77369    2.31273   46.49348
      H    H9707    28.83200    3.37550   45.96848
      O    O9708    37.08147    2.09086   33.44730
      H    H9709    37.25669    1.40463   32.80340
      H    H9710    36.38362    2.61557   33.05497
      O    O9711    24.92423    2.48034   31.00084
      H    H9712    25.65611    2.19627   30.45322
      H    H9713    25.18360    2.24167   31.89077
      O    O9714    24.08571   -1.40318   31.00547
      H    H9715    23.45660   -0.93467   31.55405
      H    H9716    24.20049   -2.24826   31.44009
      O    O9717    35.41472    1.77529   46.27398
      H    H9718    36.20725    1.28021   46.06658
      H    H9719    35.70803    2.45430   46.88154
      O    O9720    -6.00802   11.42173   35.92994
      H    H9721    -6.08861   10.50719   35.65911
      H    H9722    -6.42157   11.91844   35.22391
      O    O9723    -7.87621   13.19964   37.81086
      H    H9724    -8.65200   12.71968   38.10072
      H    H9725    -7.22492   12.52020   37.63648
      O    O9726    -3.85547   17.60565   36.59078
      H    H9727    -4.31732   16.83438   36.91949
      H    H9728    -3.04291   17.63226   37.09602
      O    O9729    -7.62914   19.89146   36.21118
      H    H9730    -8.24799   20.34721   35.64062
      H    H9731    -6.77396   20.04660   35.81015
      O    O9732    -8.43531   15.87535   37.81788
      H    H9733    -8.50449   14.93435   37.65679
      H    H9734    -7.67333   15.96550   38.39014
      O    O9735    -7.40480    8.68239   38.04477
      H    H9736    -7.02831    7.80958   37.93214
      H    H9737    -7.50285    9.01826   37.15382
      O    O9738    -3.62238    6.17744   34.97761
      H    H9739    -2.80142    5.68709   35.02016
      H    H9740    -3.58898    6.76720   35.73079
      O    O9741     0.66757    8.19411   41.54197
      H    H9742    -0.03721    8.58228   41.02348
      H    H9743     0.93336    8.88914   42.14406
      O    O9744    -6.76280   14.77538   33.60437
      H    H9745    -7.38108   15.24032   33.04064
      H    H9746    -6.25048   15.46813   34.02132
      O    O9747    -3.38624    8.11747   37.75036
      H    H9748    -4.09068    8.40596   38.33067
      H    H9749    -3.02502    8.92749   37.39032
      O    O9750    -1.76996   17.73499   40.01311
      H    H9751    -2.45361   18.40490   40.00478
      H    H9752    -1.23053   17.93305   39.24760
      O    O9753    -0.31754    7.56295   38.14128
      H    H9754    -1.26505    7.59685   38.27283
      H    H9755     0.00745    8.37685   38.52622
      O    O9756    -4.23408   19.57940   38.72763
      H    H9757    -4.22137   19.17563   37.85985
      H    H9758    -4.78656   20.35413   38.62377
      O    O9759    -2.93954   16.30102   33.81664
      H    H9760    -3.04991   15.35846   33.94159
      H    H9761    -2.94272   16.66259   34.70292
      O    O9762    -4.83554   14.48238   40.05589
      H    H9763    -4.41866   14.26840   39.22123
      H    H9764    -4.11156   14.73966   40.62675
      O    O9765    -7.39751   11.92755   33.17289
      H    H9766    -8.32459   11.86129   33.40174
      H    H9767    -7.24503   12.86557   33.05842
      O    O9768    -7.41061    8.19925   30.16961
      H    H9769    -8.35024    8.36065   30.25486
      H    H9770    -7.09228    8.91782   29.62321
      O    O9771    -0.88933   12.88111   40.14751
      H    H9772    -1.71747   12.95042   39.67253
      H    H9773    -0.29428   13.46654   39.67910
      O    O9774    -3.36779   13.48958   33.67642
      H    H9775    -3.98654   13.15154   33.02905
      H    H9776    -3.38534   12.84556   34.38434
      O    O9777    -3.92513    9.66804   41.09300
      H    H9778    -4.33801   10.49341   41.34700
      H    H9779    -4.65753    9.08254   40.90064
      O    O9780    -3.23512   19.71397   41.78110
      H    H9781    -3.71206   20.52119   41.58836
      H    H9782    -3.91894   19.06180   41.93372
      O    O9783    -5.19132   12.72827   30.68369
      H    H9784    -4.75199   11.89051   30.53748
      H    H9785    -4.47847   13.36121   30.77011
      O    O9786    -7.08178   17.66787   34.65182
      H    H9787    -6.64219   18.41031   34.23736
      H    H9788    -7.14309   17.91053   35.57571
      O    O9789    -1.60960    3.98255   28.99780
      H    H9790    -1.92234    4.07523   29.89770
      H    H9791    -0.84835    4.56065   28.94754
      O    O9792     0.34480   19.47517   46.85024
      H    H9793     0.82077   19.95345   47.52914
      H    H9794     0.96552   19.40691   46.12479
      O    O9795    -0.25187   16.66645   44.01024
      H    H9796    -0.12557   16.42764   43.09196
      H    H9797    -0.20974   15.83490   44.48245
      O    O9798    -6.39020   20.36925   42.57972
      H    H9799    -5.87573   20.28005   43.38196
      H    H9800    -7.23329   20.71522   42.87251
      O    O9801    -4.41476   20.65478   32.00812
      H    H9802    -4.57465   20.36508   32.90630
      H    H9803    -4.58009   19.87880   31.47264
      O    O9804    -4.71215   18.16354   30.56792
      H    H9805    -5.40563   18.16127   29.90815
      H    H9806    -3.96986   17.73947   30.13734
      O    O9807    -5.14715   19.78981   34.64277
      H    H9808    -4.69146   19.00875   34.95663
      H    H9809    -4.80790   20.50049   35.18689
      O    O9810    -0.39947    8.71970   44.97521
      H    H9811    -1.01505    9.22766   44.44676
      H    H9812    -0.71983    7.81953   44.91781
      O    O9813    -8.33804    7.55889   42.44143
      H    H9814    -8.80010    7.76719   43.25342
      H    H9815    -8.74023    6.74482   42.13850
      O    O9816    -3.33759    8.77978   43.57110
      H    H9817    -4.18823    8.48036   43.89200
      H    H9818    -3.49741    9.02398   42.65948
      O    O9819    -6.24262   10.27996   45.67098
      H    H9820    -5.91728    9.44633   45.33120
      H    H9821    -5.45459   10.80281   45.81881
      O    O9822    -5.60382    9.82173   33.16509
      H    H9823    -6.20293   10.54531   32.98145
      H    H9824    -5.05586    9.75941   32.38273
      O    O9825    -6.99734    8.45808   35.19542
      H    H9826    -6.60438    8.77530   34.38229
      H    H9827    -6.63565    7.57927   35.30987
      O    O9828    -8.68812    7.20881   46.45510
      H    H9829    -9.37829    7.01603   47.08971
      H    H9830    -7.94489    7.49228   46.98753
      O    O9831    -6.41182   11.04866   39.29049
      H    H9832    -7.14371   11.55734   39.63950
      H    H9833    -6.80939   10.23165   38.98937
      O    O9834    -5.94923    6.50202   38.70279
      H    H9835    -5.93196    6.95289   39.54697
      H    H9836    -6.19767    5.60259   38.91613
      O    O9837    -2.52216    3.91524   44.54143
      H    H9838    -2.19758    3.18421   45.06722
      H    H9839    -2.48651    3.59661   43.63953
      O    O9840    -2.59637   14.02775   38.15003
      H    H9841    -1.87646   14.52328   37.75964
      H    H9842    -2.79819   13.34954   37.50542
      O    O9843    -7.13538    5.42155   32.29297
      H    H9844    -7.94892    4.92287   32.21750
      H    H9845    -7.32918    6.26137   31.87660
      O    O9846    -7.21449   14.09866   44.03693
      H    H9847    -7.28076   13.17823   43.78269
      H    H9848    -7.84398   14.19620   44.75139
      O    O9849    -4.42054    9.79351   30.58918
      H    H9850    -3.53258   10.10524   30.41432
      H    H9851    -4.45003    8.92074   30.19724
      O    O9852    -8.42448   15.96588   31.26800
      H    H9853    -8.08291   16.71011   30.77233
      H    H9854    -9.25321   16.27900   31.63048
      O    O9855    -7.28282   16.92072   43.78731
      H    H9856    -7.26837   15.98881   43.56920
      H    H9857    -7.99031   17.00669   44.42629
      O    O9858    -2.14911   11.10470   30.05717
      H    H9859    -2.23274   11.53612   29.20681
      H    H9860    -1.42969   11.56453   30.48985
      O    O9861    -1.07170   13.56145   43.13417
      H    H9862    -1.79688   14.15433   42.93711
      H    H9863    -0.54415   13.55380   42.33550
      O    O9864    -1.12039   17.95892   32.78538
      H    H9865    -1.76277   17.30449   33.05976
      H    H9866    -1.50732   18.36443   32.00945
      O    O9867    -5.54174   15.28747   36.63255
      H    H9868    -5.18936   14.69028   35.97269
      H    H9869    -6.42551   14.96189   36.80338
      O    O9870    -7.84943   18.56247   40.88136
      H    H9871    -7.20521   18.76841   41.55870
      H    H9872    -7.48649   17.80131   40.42844
      O    O9873    -6.57622   16.56571   39.59910
      H    H9874    -5.93400   15.86502   39.71232
      H    H9875    -6.05129   17.34555   39.41879
      O    O9876    -2.73065   16.85057   29.32302
      H    H9877    -2.95689   16.13361   29.91548
      H    H9878    -3.12103   16.60181   28.48519
      O    O9879    -4.80246   17.36520   42.80271
      H    H9880    -4.46684   17.95187   43.48050
      H    H9881    -5.72243   17.23447   43.03249
      O    O9882    -3.14902   14.76776   30.98443
      H    H9883    -3.43685   15.22903   31.77222
      H    H9884    -2.35381   14.30754   31.25286
      O    O9885    -5.75824    7.64695   41.33520
      H    H9886    -5.39016    6.82647   41.66315
      H    H9887    -6.61842    7.70714   41.75076
      O    O9888    -2.39204    6.60264   32.14395
      H    H9889    -3.02072    6.70721   31.42978
      H    H9890    -2.88685    6.82232   32.93334
      O    O9891    -7.94622   18.32320   29.57735
      H    H9892    -7.84503   18.11960   28.64755
      H    H9893    -8.84605   18.06903   29.78213
      O    O9894    -8.79804   10.30091   41.55899
      H    H9895    -8.29952   10.77549   42.22418
      H    H9896    -8.65575    9.37726   41.76600
      O    O9897    -6.39209    5.60630   34.99932
      H    H9898    -6.51531    5.62492   34.05027
      H    H9899    -5.44364    5.65420   35.11916
      O    O9900    -1.59136    6.51770   42.40183
      H    H9901    -2.09400    7.25824   42.74121
      H    H9902    -0.77569    6.90610   42.08551
      O    O9903    -3.29916   11.76102   35.84797
      H    H9904    -4.24014   11.77604   36.02274
      H    H9905    -2.98475   10.97462   36.29400
      O    O9906    -1.29660   18.93191   37.52339
      H    H9907    -1.17186   19.75502   37.99578
      H    H9908    -0.43004   18.72098   37.17581
      O    O9909    -5.98255   16.31762   46.33121
      H    H9910    -6.58874   16.34078   45.59078
      H    H9911    -6.28714   15.58592   46.86793
      O    O9912    -4.55252   20.04565   44.94215
      H    H9913    -3.60034   19.96145   44.89217
      H    H9914    -4.69969   20.70982   45.61553
      O    O9915    -1.66160   19.42507   30.44134
      H    H9916    -1.94745   19.01158   29.62676
      H    H9917    -1.85964   20.35384   30.32139
      O    O9918    -6.95660   14.48040   29.48610
      H    H9919    -7.50559   14.92733   30.13037
      H    H9920    -6.33467   13.97533   30.00987
      O    O9921    -2.90311   15.83461   45.41832
      H    H9922    -2.16216   16.17219   44.91507
      H    H9923    -3.66584   16.00382   44.86530
      O    O9924    -8.77632   12.46325   28.63034
      H    H9925    -8.25576   11.74816   28.26445
      H    H9926    -8.12948   13.10184   28.93039
      O    O9927    -4.22854   13.88609   43.95385
      H    H9928    -3.81444   14.04060   44.80289
      H    H9929    -5.16344   14.01162   44.11642
      O    O9930    -3.75632   11.22571   45.95776
      H    H9931    -3.17425   10.47094   45.86981
      H    H9932    -3.58015   11.75645   45.18091
      O    O9933    -7.13063   11.56976   43.30722
      H    H9934    -7.01101   10.97387   44.04671
      H    H9935    -6.27123   11.60673   42.88735
      O    O9936    -4.79184   12.12348   41.88347
      H    H9937    -5.31832   12.64774   41.27999
      H    H9938    -4.44870   12.75622   42.51445
      O    O9939    -5.54441    7.72848   44.79811
      H    H9940    -6.23286    7.06663   44.73311
      H    H9941    -4.82381    7.28230   45.24295
      O    O9942    -4.91437    4.32364   30.85713
      H    H9943    -4.63414    3.48043   31.21307
      H    H9944    -5.68779    4.55595   31.37101
      O    O9945    -8.76005   21.37856   43.29788
      H    H9946    -8.83418   22.28208   43.60511
      H    H9947    -9.66217   21.05975   43.27008
      O    O9948    -8.21152   20.54442   30.92051
      H    H9949    -7.31644   20.88291   30.94239
      H    H9950    -8.17976   19.82236   30.29294
      O    O9951    -1.23209   19.07478   43.62713
      H    H9952    -1.83189   19.13404   42.88352
      H    H9953    -1.10270   18.13528   43.75682
      O    O9954     0.00806   16.81656   28.96410
      H    H9955    -0.82265   16.88423   29.43483
      H    H9956     0.18524   17.70698   28.66079
      O    O9957    -0.53630   13.56131   31.46752
      H    H9958     0.22560   14.13098   31.57349
      H    H9959    -0.52086   12.99403   32.23835
      O    O9960     0.46970   14.41632   36.31172
      H    H9961     0.84058   13.63305   35.90531
      H    H9962     1.10989   15.10523   36.13345
      O    O9963    -2.54692   15.79998   41.72475
      H    H9964    -3.36094   16.22970   41.98733
      H    H9965    -2.13950   16.41182   41.11165
      O    O9966    -0.48438   13.85475   28.62478
      H    H9967    -0.20949   14.76264   28.49670
      H    H9968    -0.67330   13.79100   29.56097
      O    O9969    -4.08682    6.87923   29.92014
      H    H9970    -3.66833    6.69233   29.07980
      H    H9971    -4.39321    6.02714   30.23043
      O    O9972    -0.58784   11.79165   33.61772
      H    H9973    -0.96348   11.02444   33.18585
      H    H9974    -1.31753   12.17392   34.10521
      O    O9975    -1.19788   10.93880   43.25167
      H    H9976    -1.42927   10.71008   42.35147
      H    H9977    -0.93743   11.85876   43.20616
      O    O9978    -2.75908    6.16444   46.02964
      H    H9979    -1.88206    6.17278   46.41304
      H    H9980    -2.74699    5.42753   45.41888
      O    O9981    -1.31275   10.01740   36.91844
      H    H9982    -0.78900    9.52366   36.28746
      H    H9983    -0.72681   10.15243   37.66320
      O    O9984    -1.13378   10.10138   40.44040
      H    H9985    -2.08351   10.06774   40.55490
      H    H9986    -0.95248   11.01140   40.20537
      O    O9987    -1.82275    9.27473   32.85768
      H    H9988    -1.32684    9.04182   33.64257
      H    H9989    -2.02114    8.43592   32.44145
      O    O9990    -0.39404    7.91083   35.39145
      H    H9991    -0.50411    7.75643   36.32968
      H    H9992     0.36672    7.38292   35.14899
      O    O9993    -2.04746    3.85024   41.84975
      H    H9994    -1.41024    4.46365   42.21567
      H    H9995    -1.89997    3.88631   40.90467
      O    O9996     0.49499    5.74162   28.63207
      H    H9997     1.41992    5.60974   28.42389
      H    H9998     0.47257    5.82090   29.58571
      O    O9999     0.56884    6.51269   31.25774
      H    H10000    -0.22601    6.44720   31.78703
      H    H10001     0.77317    7.44775   31.24627
      O    O10002    -2.48932   20.55184   35.25158
      H    H10003    -1.89341   20.23030   34.57502
      H    H10004    -2.23150   20.07902   36.04290
      O    O10005    -8.67702    5.00286   44.75726
      H    H10006    -8.73813    5.59504   45.50680
      H    H10007    -7.73698    4.89546   44.61229
      O    O10008    -6.03956    4.65987   44.39649
      H    H10009    -5.42552    4.97779   43.73460
      H    H10010    -5.49460    4.17472   45.01608
      O    O10011     0.37796   20.55903   41.80267
      H    H10012    -0.11621   20.95592   41.08539
      H    H10013    -0.23071   19.93395   42.19640
      O    O10014    -5.29876    3.22308   40.72342
      H    H10015    -6.17277    3.55659   40.52071
      H    H10016    -5.40768    2.75040   41.54861
      O    O10017    -4.39156    5.43017   42.10759
      H    H10018    -4.72022    4.61534   41.72776
      H    H10019    -3.44333    5.38715   41.98416
      O    O10020    -1.93810   21.20137   39.08135
      H    H10021    -2.39780   21.95295   38.70715
      H    H10022    -2.56685   20.48202   39.02283
      O    O10023    -8.76897   20.40104   39.08306
      H    H10024    -8.48119   20.14647   38.20636
      H    H10025    -8.25665   19.84878   39.67362
      O    O10026    -7.55127    4.14006   39.66271
      H    H10027    -8.33409    4.61461   39.94239
      H    H10028    -7.84498    3.23555   39.55403
      O    O10029    -2.99917    4.84237   37.70762
      H    H10030    -2.55836    4.78688   36.85978
      H    H10031    -3.26841    5.75817   37.77864
      O    O10032    -1.13531    4.47390   35.71850
      H    H10033    -1.19647    3.53002   35.57160
      H    H10034    -0.35611    4.58191   36.26385
      O    O10035    -5.16335    3.22298   36.41262
      H    H10036    -4.56042    3.79500   36.88747
      H    H10037    -5.90405    3.78693   36.19001
      O    O10038    -2.01989    3.62514   31.68665
      H    H10039    -1.82483    4.52348   31.95339
      H    H10040    -2.80691    3.39385   32.17994
      O    O10041    -8.70174   21.32265   46.44988
      H    H10042    -7.77501   21.08708   46.49348
      H    H10043    -8.71670   22.14985   45.96848
      O    O10044    -0.46723   20.86521   33.44730
      H    H10045    -0.29201   20.17898   32.80340
      H    H10046    -1.16508   21.38992   33.05497
      O    O10047    -4.91383    3.40249   46.79211
      H    H10048    -5.02729    3.72195   47.68727
      H    H10049    -4.09686    3.80374   46.49584
      O    O10050    -2.13398   20.54964   46.27398
      H    H10051    -1.34145   20.05456   46.06658
      H    H10052    -1.84067   21.22865   46.88154
      O    O10053    12.76633   11.42173   35.92994
      H    H10054    12.68574   10.50719   35.65911
      H    H10055    12.35278   11.91844   35.22391
      O    O10056    10.89814   13.19964   37.81086
      H    H10057    10.12235   12.71968   38.10072
      H    H10058    11.54943   12.52020   37.63648
      O    O10059     4.91472   13.51162   38.68844
      H    H10060     4.08321   13.25649   39.08809
      H    H10061     5.52282   13.58269   39.42423
      O    O10062    14.91888   17.60565   36.59078
      H    H10063    14.45703   16.83438   36.91949
      H    H10064    15.73144   17.63226   37.09602
      O    O10065     4.89485   17.54563   38.88424
      H    H10066     5.19765   16.65540   38.70526
      H    H10067     5.63921   18.10265   38.65647
      O    O10068     3.32392    8.47181   32.47268
      H    H10069     2.43559    8.81340   32.37067
      H    H10070     3.60803    8.27184   31.58076
      O    O10071     1.28722   11.07237   38.35665
      H    H10072     1.85883   10.30459   38.35701
      H    H10073     1.28737   11.37125   37.44731
      O    O10074    11.14521   19.89146   36.21118
      H    H10075    10.52636   20.34721   35.64062
      H    H10076    12.00039   20.04660   35.81015
      O    O10077    10.33904   15.87535   37.81788
      H    H10078    10.26986   14.93435   37.65679
      H    H10079    11.10102   15.96550   38.39014
      O    O10080     2.52970    6.48081   40.14354
      H    H10081     2.34999    5.58338   40.42382
      H    H10082     2.12771    7.02799   40.81824
      O    O10083    11.36955    8.68239   38.04477
      H    H10084    11.74604    7.80958   37.93214
      H    H10085    11.27150    9.01826   37.15382
      O    O10086     5.50005    7.05496   33.50652
      H    H10087     5.60673    7.95533   33.81339
      H    H10088     4.58929    7.00675   33.21598
      O    O10089    15.15197    6.17744   34.97761
      H    H10090    15.97293    5.68709   35.02016
      H    H10091    15.18537    6.76720   35.73079
      O    O10092     3.14837    8.97686   38.75178
      H    H10093     3.82938    9.24069   39.37052
      H    H10094     2.83318    8.13694   39.08558
      O    O10095     7.34083   10.02359   37.83904
      H    H10096     7.84865   10.52169   38.47954
      H    H10097     7.87215    9.24711   37.66297
      O    O10098    19.44192    8.19411   41.54197
      H    H10099    18.73714    8.58228   41.02348
      H    H10100    19.70771    8.88914   42.14406
      O    O10101     5.62444    4.66345   42.10538
      H    H10102     5.62628    5.18069   41.29997
      H    H10103     4.79487    4.18647   42.08237
      O    O10104    12.01155   14.77538   33.60437
      H    H10105    11.39327   15.24032   33.04064
      H    H10106    12.52387   15.46813   34.02132
      O    O10107     6.87472   14.30297   40.28273
      H    H10108     6.54166   14.92986   40.92483
      H    H10109     7.05139   14.82915   39.50289
      O    O10110    15.38811    8.11747   37.75036
      H    H10111    14.68367    8.40596   38.33067
      H    H10112    15.74933    8.92749   37.39032
      O    O10113     5.30597    6.37444   40.11242
      H    H10114     5.64765    7.21865   39.81781
      H    H10115     4.36755    6.52282   40.22896
      O    O10116     6.08663   16.27105   42.09765
      H    H10117     6.70403   16.94615   41.81609
      H    H10118     5.22594   16.67984   42.00640
      O    O10119     1.37987   15.46103   30.97833
      H    H10120     1.00266   15.94974   30.24682
      H    H10121     1.63717   16.13356   31.60898
      O    O10122    17.00439   17.73499   40.01311
      H    H10123    16.32074   18.40490   40.00478
      H    H10124    17.54382   17.93305   39.24760
      O    O10125    18.45681    7.56295   38.14128
      H    H10126    17.50930    7.59685   38.27283
      H    H10127    18.78180    8.37685   38.52622
      O    O10128     8.98876    3.86267   36.43688
      H    H10129     9.29626    3.30736   35.72043
      H    H10130     8.05883    3.99712   36.25418
      O    O10131    14.54027   19.57940   38.72763
      H    H10132    14.55298   19.17563   37.85985
      H    H10133    13.98779   20.35413   38.62377
      O    O10134    15.83481   16.30102   33.81664
      H    H10135    15.72444   15.35846   33.94159
      H    H10136    15.83163   16.66259   34.70292
      O    O10137    13.93881   14.48238   40.05589
      H    H10138    14.35569   14.26840   39.22123
      H    H10139    14.66279   14.73966   40.62675
      O    O10140    11.37684   11.92755   33.17289
      H    H10141    10.44976   11.86129   33.40174
      H    H10142    11.52932   12.86557   33.05842
      O    O10143    11.36374    8.19925   30.16961
      H    H10144    10.42411    8.36065   30.25486
      H    H10145    11.68207    8.91782   29.62321
      O    O10146    17.88502   12.88111   40.14751
      H    H10147    17.05688   12.95042   39.67253
      H    H10148    18.48007   13.46654   39.67910
      O    O10149    15.40656   13.48958   33.67642
      H    H10150    14.78781   13.15154   33.02905
      H    H10151    15.38901   12.84556   34.38434
      O    O10152    14.84922    9.66804   41.09300
      H    H10153    14.43634   10.49341   41.34700
      H    H10154    14.11682    9.08254   40.90064
      O    O10155     6.98250   12.45403   35.95487
      H    H10156     6.57820   11.74175   35.45946
      H    H10157     7.06881   12.10935   36.84367
      O    O10158     7.45067   16.14078   38.11879
      H    H10159     7.15350   15.53533   37.43957
      H    H10160     8.40065   16.17852   38.00772
      O    O10161     5.69536    9.22835   39.73477
      H    H10162     6.24682    9.33788   38.96010
      H    H10163     6.20971    9.60211   40.45029
      O    O10164     6.54251   15.87895   44.76957
      H    H10165     5.64537   16.10295   45.01691
      H    H10166     6.56780   16.00245   43.82071
      O    O10167    13.58303   12.72827   30.68369
      H    H10168    14.02236   11.89051   30.53748
      H    H10169    14.29588   13.36121   30.77011
      O    O10170     5.36963   12.75029   43.34530
      H    H10171     5.23041   13.62257   43.71404
      H    H10172     4.48777   12.40757   43.20010
      O    O10173    11.69257   17.66787   34.65182
      H    H10174    12.13216   18.41031   34.23736
      H    H10175    11.63126   17.91053   35.57571
      O    O10176     7.16767   18.69246   45.55382
      H    H10177     7.13921   19.09675   44.68666
      H    H10178     7.00417   17.76349   45.39098
      O    O10179    17.16475    3.98255   28.99780
      H    H10180    16.85201    4.07523   29.89770
      H    H10181    17.92600    4.56065   28.94754
      O    O10182     3.68296   11.34853   33.45553
      H    H10183     3.56272   12.07474   32.84366
      H    H10184     3.37305   10.57882   32.97832
      O    O10185     1.32150   14.52004   39.26240
      H    H10186     1.39954   14.65492   38.31797
      H    H10187     1.93567   13.81163   39.45521
      O    O10188     2.56626   16.22006   35.67301
      H    H10189     2.15907   16.36152   34.81837
      H    H10190     3.45756   15.93608   35.47013
      O    O10191    18.52248   16.66645   44.01024
      H    H10192    18.64878   16.42764   43.09196
      H    H10193    18.56461   15.83490   44.48245
      O    O10194    12.38415   20.36925   42.57972
      H    H10195    12.89862   20.28005   43.38196
      H    H10196    11.54106   20.71522   42.87251
      O    O10197    14.35959   20.65478   32.00812
      H    H10198    14.19970   20.36508   32.90630
      H    H10199    14.19426   19.87880   31.47264
      O    O10200     6.83843   20.43464   33.78528
      H    H10201     6.66268   19.51819   33.57206
      H    H10202     5.98400   20.79337   34.02506
      O    O10203    14.06220   18.16354   30.56792
      H    H10204    13.36872   18.16127   29.90815
      H    H10205    14.80449   17.73947   30.13734
      O    O10206    13.62720   19.78981   34.64277
      H    H10207    14.08289   19.00875   34.95663
      H    H10208    13.96645   20.50049   35.18689
      O    O10209    18.37488    8.71970   44.97521
      H    H10210    17.75930    9.22766   44.44676
      H    H10211    18.05452    7.81953   44.91781
      O    O10212     1.37745   15.56146   41.80184
      H    H10213     1.54056   15.09199   40.98378
      H    H10214     1.84270   15.05381   42.46673
      O    O10215     6.14933    4.69203   36.83790
      H    H10216     5.70614    5.47299   36.50635
      H    H10217     6.70783    5.01502   37.54499
      O    O10218    10.43631    7.55889   42.44143
      H    H10219     9.97425    7.76719   43.25342
      H    H10220    10.03412    6.74482   42.13850
      O    O10221    15.43676    8.77978   43.57110
      H    H10222    14.58612    8.48036   43.89200
      H    H10223    15.27694    9.02398   42.65948
      O    O10224    12.53173   10.27996   45.67098
      H    H10225    12.85707    9.44633   45.33120
      H    H10226    13.31976   10.80281   45.81881
      O    O10227     9.26521    4.31310   31.71848
      H    H10228     8.64063    4.30909   32.44381
      H    H10229     9.17822    3.44620   31.32208
      O    O10230     8.18692    5.23677   38.69686
      H    H10231     8.48415    6.14305   38.61606
      H    H10232     8.73547    4.74864   38.08282
      O    O10233     5.94075    9.81539   34.56602
      H    H10234     5.71484    9.59911   35.47069
      H    H10235     5.16000   10.24824   34.22062
      O    O10236    13.17053    9.82173   33.16509
      H    H10237    12.57142   10.54531   32.98145
      H    H10238    13.71849    9.75941   32.38273
      O    O10239     8.38067   10.71395   45.23205
      H    H10240     8.28503    9.77342   45.08209
      H    H10241     9.22387   10.93546   44.83686
      O    O10242    11.77701    8.45808   35.19542
      H    H10243    12.16997    8.77530   34.38229
      H    H10244    12.13870    7.57927   35.30987
      O    O10245     3.51173    7.12532   43.38543
      H    H10246     3.11806    7.97284   43.59271
      H    H10247     2.82357    6.48795   43.57629
      O    O10248    10.08623    7.20881   46.45510
      H    H10249     9.39606    7.01603   47.08971
      H    H10250    10.82946    7.49228   46.98753
      O    O10251     0.81343    5.04816   37.41844
      H    H10252     0.52474    5.61845   38.13093
      H    H10253     1.55801    4.56861   37.78156
      O    O10254     1.00045    8.99017   28.62871
      H    H10255     0.91792    9.93325   28.77021
      H    H10256     0.64876    8.84766   27.74994
      O    O10257    12.36253   11.04866   39.29049
      H    H10258    11.63064   11.55734   39.63950
      H    H10259    11.96496   10.23165   38.98937
      O    O10260     8.80027    7.72408   37.69574
      H    H10261     8.80387    7.28307   36.84620
      H    H10262     9.69538    8.04581   37.80293
      O    O10263     4.65050    7.60673   36.65516
      H    H10264     4.31051    8.08425   37.41187
      H    H10265     3.88824    7.15324   36.29527
      O    O10266     8.86228    8.72528   30.68642
      H    H10267     8.98356    8.68393   31.63500
      H    H10268     8.47713    9.58770   30.53109
      O    O10269    12.82512    6.50202   38.70279
      H    H10270    12.84239    6.95289   39.54697
      H    H10271    12.57668    5.60259   38.91613
      O    O10272     7.87443   11.03540   30.08475
      H    H10273     7.30612   10.58722   29.45834
      H    H10274     8.58333   11.39468   29.55126
      O    O10275    16.25219    3.91524   44.54143
      H    H10276    16.57677    3.18421   45.06722
      H    H10277    16.28784    3.59661   43.63953
      O    O10278     2.95135   14.93660   43.96142
      H    H10279     2.56683   14.29597   44.55972
      H    H10280     3.26257   15.64021   44.53090
      O    O10281     9.10106   11.78425   39.44228
      H    H10282     9.46808   11.31011   40.18842
      H    H10283     8.91157   12.65841   39.78312
      O    O10284     1.96511    6.52862   35.57163
      H    H10285     1.67980    6.16419   36.40949
      H    H10286     1.90300    5.79667   34.95795
      O    O10287     6.89100   10.82512   41.76071
      H    H10288     6.58671   11.70432   41.98574
      H    H10289     7.84565   10.88510   41.79645
      O    O10290     5.41918   15.03122   32.35739
      H    H10291     4.64541   14.49098   32.19726
      H    H10292     6.14864   14.51188   32.01917
      O    O10293    16.17798   14.02775   38.15003
      H    H10294    16.89789   14.52328   37.75964
      H    H10295    15.97616   13.34954   37.50542
      O    O10296    11.63897    5.42155   32.29297
      H    H10297    10.82543    4.92287   32.21750
      H    H10298    11.44517    6.26137   31.87660
      O    O10299    11.55986   14.09866   44.03693
      H    H10300    11.49359   13.17823   43.78269
      H    H10301    10.93037   14.19620   44.75139
      O    O10302    14.35381    9.79351   30.58918
      H    H10303    15.24177   10.10524   30.41432
      H    H10304    14.32432    8.92074   30.19724
      O    O10305     5.46292   14.69926   35.99527
      H    H10306     5.98079   13.89608   35.94096
      H    H10307     5.01132   14.63717   36.83695
      O    O10308    10.34987   15.96588   31.26800
      H    H10309    10.69144   16.71011   30.77233
      H    H10310     9.52114   16.27900   31.63048
      O    O10311     2.94737   11.66539   42.90784
      H    H10312     2.58887   12.33078   43.49518
      H    H10313     2.65283   10.83375   43.27910
      O    O10314     6.14869   12.12382   45.79180
      H    H10315     5.84870   12.26953   44.89458
      H    H10316     6.91981   11.56435   45.69914
      O    O10317    11.49153   16.92072   43.78731
      H    H10318    11.50598   15.98881   43.56920
      H    H10319    10.78404   17.00669   44.42629
      O    O10320    16.62524   11.10470   30.05717
      H    H10321    16.54161   11.53612   29.20681
      H    H10322    17.34466   11.56453   30.48985
      O    O10323    17.70265   13.56145   43.13417
      H    H10324    16.97747   14.15433   42.93711
      H    H10325    18.23020   13.55380   42.33550
      O    O10326    17.65396   17.95892   32.78538
      H    H10327    17.01158   17.30449   33.05976
      H    H10328    17.26703   18.36443   32.00945
      O    O10329    13.23261   15.28747   36.63255
      H    H10330    13.58499   14.69028   35.97269
      H    H10331    12.34884   14.96189   36.80338
      O    O10332     9.31894   16.04724   34.03959
      H    H10333    10.00605   16.59416   34.42035
      H    H10334     8.53218   16.59131   34.07455
      O    O10335     1.45818   11.66452   29.53130
      H    H10336     2.32766   11.94700   29.81489
      H    H10337     0.96721   12.47811   29.41618
      O    O10338     8.62166   13.05184   33.65213
      H    H10339     9.07794   13.86236   33.87815
      H    H10340     8.27048   12.73415   34.48398
      O    O10341    10.92492   18.56247   40.88136
      H    H10342    11.56914   18.76841   41.55870
      H    H10343    11.28786   17.80131   40.42844
      O    O10344     4.52284    3.39560   34.12438
      H    H10345     4.39430    3.38739   35.07287
      H    H10346     3.69904    3.73391   33.77348
      O    O10347    12.19813   16.56571   39.59910
      H    H10348    12.84035   15.86502   39.71232
      H    H10349    12.72306   17.34555   39.41879
      O    O10350    13.97189   17.36520   42.80271
      H    H10351    14.30751   17.95187   43.48050
      H    H10352    13.05192   17.23447   43.03249
      O    O10353     1.82530   20.87726   30.09746
      H    H10354     2.18507   21.47619   29.44319
      H    H10355     1.68454   21.42325   30.87097
      O    O10356     1.52223    5.15472   43.58505
      H    H10357     0.80808    5.35441   44.19031
      H    H10358     1.94173    4.37867   43.95653
      O    O10359     1.80949   19.14274   44.57170
      H    H10360     1.91860   18.20222   44.43124
      H    H10361     1.15755   19.40822   43.92308
      O    O10362     9.80075   17.41433   45.97152
      H    H10363     9.48044   16.69526   46.51609
      H    H10364     9.12658   18.08984   46.04512
      O    O10365     7.84217   18.26038   30.91483
      H    H10366     7.83318   18.99335   30.29928
      H    H10367     6.92200   18.01353   31.00753
      O    O10368     3.44283   13.48187   31.65951
      H    H10369     2.83562   14.22176   31.66904
      H    H10370     3.91776   13.57180   30.83333
      O    O10371    13.01611    7.64695   41.33520
      H    H10372    13.38419    6.82647   41.66315
      H    H10373    12.15593    7.70714   41.75076
      O    O10374    16.38231    6.60264   32.14395
      H    H10375    15.75363    6.70721   31.42978
      H    H10376    15.88750    6.82232   32.93334
      O    O10377    10.82813   18.32320   29.57735
      H    H10378    10.92932   18.11960   28.64755
      H    H10379     9.92830   18.06903   29.78213
      O    O10380     8.35071    8.88124   33.55974
      H    H10381     7.64233    9.34987   34.00110
      H    H10382     8.63516    8.22344   34.19426
      O    O10383     9.97631   10.30091   41.55899
      H    H10384    10.47483   10.77549   42.22418
      H    H10385    10.11860    9.37726   41.76600
      O    O10386    12.38226    5.60630   34.99932
      H    H10387    12.25904    5.62492   34.05027
      H    H10388    13.33071    5.65420   35.11916
      O    O10389     9.46994   20.84183   34.27212
      H    H10390     9.72409   20.80397   33.35005
      H    H10391     8.52118   20.71517   34.26494
      O    O10392     6.55422    7.18974   30.93481
      H    H10393     7.40327    7.62676   30.86883
      H    H10394     6.18734    7.50177   31.76202
      O    O10395    17.18299    6.51770   42.40183
      H    H10396    16.68035    7.25824   42.74121
      H    H10397    17.99866    6.90610   42.08551
      O    O10398    15.47519   11.76102   35.84797
      H    H10399    14.53421   11.77604   36.02274
      H    H10400    15.78960   10.97462   36.29400
      O    O10401     5.45336   13.44298   29.40836
      H    H10402     6.21969   13.33112   29.97091
      H    H10403     5.53083   12.74678   28.75604
      O    O10404     4.14803   10.87549   30.09165
      H    H10405     4.22839    9.92824   30.20339
      H    H10406     5.04001   11.20618   30.19772
      O    O10407    17.47775   18.93191   37.52339
      H    H10408    17.60249   19.75502   37.99578
      H    H10409    18.34431   18.72098   37.17581
      O    O10410     4.94951   21.02503   37.19511
      H    H10411     5.68575   20.47657   37.46596
      H    H10412     5.33360   21.89063   37.05571
      O    O10413     1.83405   17.09238   33.06926
      H    H10414     0.90803   17.33450   33.05980
      H    H10415     2.29970   17.91981   32.94773
      O    O10416     3.95533   20.20963   46.38367
      H    H10417     4.75661   20.53084   46.79721
      H    H10418     3.44052   19.84919   47.10566
      O    O10419    12.79180   16.31762   46.33121
      H    H10420    12.18561   16.34078   45.59078
      H    H10421    12.48721   15.58592   46.86793
      O    O10422    14.22183   20.04565   44.94215
      H    H10423    15.17401   19.96145   44.89217
      H    H10424    14.07466   20.70982   45.61553
      O    O10425    17.11275   19.42507   30.44134
      H    H10426    16.82690   19.01158   29.62676
      H    H10427    16.91471   20.35384   30.32139
      O    O10428     1.67511   12.69698   45.32727
      H    H10429     2.17902   12.11771   45.89889
      H    H10430     0.93586   12.98100   45.86491
      O    O10431     8.72891   14.10408   44.86082
      H    H10432     7.96348   14.67258   44.77629
      H    H10433     8.91050   13.81170   43.96765
      O    O10434    11.81775   14.48040   29.48610
      H    H10435    11.26876   14.92733   30.13037
      H    H10436    12.43968   13.97533   30.00987
      O    O10437    15.87124   15.83461   45.41832
      H    H10438    16.61219   16.17219   44.91507
      H    H10439    15.10851   16.00382   44.86530
      O    O10440     3.70742   10.83994   46.22228
      H    H10441     3.74796   10.54133   47.13080
      H    H10442     4.56197   11.24070   46.06303
      O    O10443     7.48526   13.43949   31.38263
      H    H10444     7.90690   13.27348   32.22577
      H    H10445     7.61035   12.62952   30.88814
      O    O10446     5.64800    9.41915   44.18973
      H    H10447     5.11765    8.92824   43.56206
      H    H10448     6.31681    9.84757   43.65552
      O    O10449     9.99803   12.46325   28.63034
      H    H10450    10.51859   11.74816   28.26445
      H    H10451    10.64487   13.10184   28.93039
      O    O10452    14.54581   13.88609   43.95385
      H    H10453    14.95991   14.04060   44.80289
      H    H10454    13.61091   14.01162   44.11642
      O    O10455    15.01803   11.22571   45.95776
      H    H10456    15.60010   10.47094   45.86981
      H    H10457    15.19420   11.75645   45.18091
      O    O10458     6.13523    6.38539   44.26946
      H    H10459     6.04092    5.76746   43.54454
      H    H10460     5.55497    7.11201   44.04245
      O    O10461     8.90138    4.94271   41.30219
      H    H10462     8.45311    4.96514   40.45675
      H    H10463     8.26790    4.54461   41.89922
      O    O10464     9.30733   13.83814   41.92344
      H    H10465     9.72614   14.68142   41.75106
      H    H10466     8.38820   13.97535   41.69412
      O    O10467    11.64372   11.56976   43.30722
      H    H10468    11.76334   10.97387   44.04671
      H    H10469    12.50312   11.60673   42.88735
      O    O10470    13.98251   12.12348   41.88347
      H    H10471    13.45603   12.64774   41.27999
      H    H10472    14.32565   12.75622   42.51445
      O    O10473     6.38115    9.51282   28.32844
      H    H10474     6.18006    8.64955   28.68978
      H    H10475     6.21036    9.42615   27.39060
      O    O10476     7.15807   20.14344   43.03921
      H    H10477     6.62018   20.86805   42.72008
      H    H10478     7.41147   19.66648   42.24895
      O    O10479     8.41060    8.11190   44.56480
      H    H10480     9.00057    7.80348   45.25259
      H    H10481     7.59262    7.63987   44.72079
      O    O10482    13.22994    7.72848   44.79811
      H    H10483    12.54149    7.06663   44.73311
      H    H10484    13.95054    7.28230   45.24295
      O    O10485    13.85998    4.32364   30.85713
      H    H10486    14.14021    3.48043   31.21307
      H    H10487    13.08656    4.55595   31.37101
      O    O10488     5.17943    6.61288   28.31623
      H    H10489     5.48202    6.61962   27.40815
      H    H10490     5.91889    6.26266   28.81300
      O    O10491    10.01430   21.37856   43.29788
      H    H10492     9.94017   22.28208   43.60511
      H    H10493     9.11218   21.05975   43.27008
      O    O10494     8.39792    5.55634   29.30185
      H    H10495     8.05012    4.87874   28.72210
      H    H10496     8.59920    5.09529   30.11619
      O    O10497    10.56283   20.54442   30.92051
      H    H10498    11.45791   20.88291   30.94239
      H    H10499    10.59459   19.82236   30.29294
      O    O10500     4.20244   15.91712   29.14921
      H    H10501     4.63993   16.46009   29.80497
      H    H10502     4.68722   15.09182   29.15885
      O    O10503     1.41702   18.70602   36.60124
      H    H10504     1.74733   17.83813   36.36910
      H    H10505     1.84612   18.91188   37.43173
      O    O10506     6.01322   17.03692   34.26144
      H    H10507     5.71277   16.91342   35.16183
      H    H10508     5.90697   16.17778   33.85301
      O    O10509     1.90605   19.57308   39.33940
      H    H10510     1.46914   19.75316   40.17182
      H    H10511     2.47381   20.33054   39.19757
      O    O10512    18.23805   13.56131   31.46752
      H    H10513    18.99995   14.13098   31.57349
      H    H10514    18.25349   12.99403   32.23835
      O    O10515     1.73849   12.08511   35.69829
      H    H10516     1.08337   11.81627   35.05426
      H    H10517     2.57628   11.97555   35.24849
      O    O10518    19.24405   14.41632   36.31172
      H    H10519    19.61493   13.63305   35.90531
      H    H10520    19.88424   15.10523   36.13345
      O    O10521    16.22743   15.79998   41.72475
      H    H10522    15.41341   16.22970   41.98733
      H    H10523    16.63485   16.41182   41.11165
      O    O10524    14.68753    6.87923   29.92014
      H    H10525    15.10602    6.69233   29.07980
      H    H10526    14.38114    6.02714   30.23043
      O    O10527    18.18651   11.79165   33.61772
      H    H10528    17.81087   11.02444   33.18585
      H    H10529    17.45682   12.17392   34.10521
      O    O10530     2.77608   12.47036   40.23862
      H    H10531     3.14339   12.38310   41.11823
      H    H10532     2.20716   11.70702   40.13931
      O    O10533    17.57647   10.93880   43.25167
      H    H10534    17.34508   10.71008   42.35147
      H    H10535    17.83692   11.85876   43.20616
      O    O10536     2.32768    9.38127   44.14447
      H    H10537     1.43329    9.34795   44.48384
      H    H10538     2.86744    9.57995   44.90959
      O    O10539    16.01527    6.16444   46.02964
      H    H10540    16.89229    6.17278   46.41304
      H    H10541    16.02736    5.42753   45.41888
      O    O10542     0.95230    9.29500   31.64082
      H    H10543     0.04870    9.55802   31.46599
      H    H10544     1.43636    9.56612   30.86082
      O    O10545    17.46160   10.01740   36.91844
      H    H10546    17.98535    9.52366   36.28746
      H    H10547    18.04754   10.15243   37.66320
      O    O10548    17.64057   10.10138   40.44040
      H    H10549    16.69084   10.06774   40.55490
      H    H10550    17.82187   11.01140   40.20537
      O    O10551     3.49502    8.35155   29.55026
      H    H10552     4.20419    7.92987   29.06499
      H    H10553     2.77901    8.41908   28.91860
      O    O10554     3.14243    4.40549   28.59053
      H    H10555     3.86525    4.94638   28.90865
      H    H10556     3.41489    4.13183   27.71468
      O    O10557    16.95160    9.27473   32.85768
      H    H10558    17.44751    9.04182   33.64257
      H    H10559    16.75321    8.43592   32.44145
      O    O10560     2.83165    3.65610   38.49279
      H    H10561     3.47927    3.10584   38.05230
      H    H10562     3.25184    3.91042   39.31437
      O    O10563    18.38031    7.91083   35.39145
      H    H10564    18.27024    7.75643   36.32968
      H    H10565    19.14107    7.38292   35.14899
      O    O10566    16.72689    3.85024   41.84975
      H    H10567    17.36411    4.46365   42.21567
      H    H10568    16.87438    3.88631   40.90467
      O    O10569    19.26934    5.74162   28.63207
      H    H10570    20.19427    5.60974   28.42389
      H    H10571    19.24692    5.82090   29.58571
      O    O10572    19.34319    6.51269   31.25774
      H    H10573    18.54834    6.44720   31.78703
      H    H10574    19.54752    7.44775   31.24627
      O    O10575    16.28503   20.55184   35.25158
      H    H10576    16.88094   20.23030   34.57502
      H    H10577    16.54285   20.07902   36.04290
      O    O10578     2.58485    3.81167   41.23532
      H    H10579     2.23633    4.26805   42.00114
      H    H10580     2.25362    2.91738   41.31756
      O    O10581     4.19129   16.98363   45.40064
      H    H10582     4.14825   16.61292   46.28208
      H    H10583     4.32239   17.92139   45.54082
      O    O10584     7.89189   18.53959   41.00161
      H    H10585     7.65103   18.80705   40.11466
      H    H10586     8.83216   18.71016   41.05670
      O    O10587    10.09733    5.00286   44.75726
      H    H10588    10.03622    5.59504   45.50680
      H    H10589    11.03737    4.89546   44.61229
      O    O10590    12.73479    4.65987   44.39649
      H    H10591    13.34883    4.97779   43.73460
      H    H10592    13.27975    4.17472   45.01608
      O    O10593     3.25692    3.33929   44.51040
      H    H10594     3.80522    3.15810   43.74701
      H    H10595     3.32245    2.54870   45.04603
      O    O10596     4.03009   19.92986   42.52042
      H    H10597     3.43612   19.79833   43.25942
      H    H10598     4.02248   19.09367   42.05463
      O    O10599    13.47559    3.22308   40.72342
      H    H10600    12.60158    3.55659   40.52071
      H    H10601    13.36667    2.75040   41.54861
      O    O10602    14.38279    5.43017   42.10759
      H    H10603    14.05413    4.61534   41.72776
      H    H10604    15.33102    5.38715   41.98416
      O    O10605     3.66132   17.29569   41.47122
      H    H10606     2.93472   16.67622   41.40382
      H    H10607     3.72223   17.68976   40.60103
      O    O10608     7.26583   19.51019   38.25616
      H    H10609     7.78233   18.89893   37.73099
      H    H10610     7.91556   20.01307   38.74726
      O    O10611    10.00538   20.40104   39.08306
      H    H10612    10.29316   20.14647   38.20636
      H    H10613    10.51770   19.84878   39.67362
      O    O10614    11.22308    4.14006   39.66271
      H    H10615    10.44026    4.61461   39.94239
      H    H10616    10.92937    3.23555   39.55403
      O    O10617    15.77518    4.84237   37.70762
      H    H10618    16.21599    4.78688   36.85978
      H    H10619    15.50594    5.75817   37.77864
      O    O10620    17.63904    4.47390   35.71850
      H    H10621    17.57788    3.53002   35.57160
      H    H10622    18.41824    4.58191   36.26385
      O    O10623     1.94432   20.61313   34.68090
      H    H10624     1.77652   19.98020   35.37909
      H    H10625     1.07777   20.81907   34.33032
      O    O10626     2.56712    4.44481   32.18408
      H    H10627     3.32505    4.55770   31.61049
      H    H10628     2.10483    5.28173   32.13843
      O    O10629     9.10850    6.55874   35.17431
      H    H10630     8.29595    6.18443   34.83390
      H    H10631     9.61266    5.80325   35.47643
      O    O10632    13.61100    3.22298   36.41262
      H    H10633    14.21393    3.79500   36.88747
      H    H10634    12.87030    3.78693   36.19001
      O    O10635    16.75446    3.62514   31.68665
      H    H10636    16.94952    4.52348   31.95339
      H    H10637    15.96744    3.39385   32.17994
      O    O10638     3.55059   19.30646   32.12591
      H    H10639     3.02535   19.68726   31.42211
      H    H10640     3.47504   19.93153   32.84688
      O    O10641     4.93963    4.97122   30.72428
      H    H10642     5.46891    4.18420   30.59507
      H    H10643     5.57246    5.65034   30.95783
      O    O10644     7.13342    4.70873   33.77882
      H    H10645     6.50369    4.00746   33.94583
      H    H10646     6.59393    5.46914   33.56213
      O    O10647    10.07261   21.32265   46.44988
      H    H10648    10.99934   21.08708   46.49348
      H    H10649    10.05765   22.14985   45.96848
      O    O10650    18.30712   20.86521   33.44730
      H    H10651    18.48234   20.17898   32.80340
      H    H10652    17.60927   21.38992   33.05497
      O    O10653     7.25897    3.98713   46.21407
      H    H10654     6.97740    4.49049   45.45015
      H    H10655     7.64094    3.18930   45.84828
      O    O10656     6.14988   21.25469   31.00084
      H    H10657     6.88176   20.97062   30.45322
      H    H10658     6.40925   21.01602   31.89077
      O    O10659     5.31136   17.37117   31.00547
      H    H10660     4.68225   17.83968   31.55405
      H    H10661     5.42614   16.52609   31.44009
      O    O10662    13.86052    3.40249   46.79211
      H    H10663    13.74706    3.72195   47.68727
      H    H10664    14.67749    3.80374   46.49584
      O    O10665    31.54068   11.42173   35.92994
      H    H10666    31.46009   10.50719   35.65911
      H    H10667    31.12713   11.91844   35.22391
      O    O10668    29.67249   13.19964   37.81086
      H    H10669    28.89670   12.71968   38.10072
      H    H10670    30.32378   12.52020   37.63648
      O    O10671    33.69323   17.60565   36.59078
      H    H10672    33.23138   16.83438   36.91949
      H    H10673    34.50579   17.63226   37.09602
      O    O10674    22.09827    8.47181   32.47268
      H    H10675    21.20994    8.81340   32.37067
      H    H10676    22.38238    8.27184   31.58076
      O    O10677    20.06157   11.07237   38.35665
      H    H10678    20.63318   10.30459   38.35701
      H    H10679    20.06172   11.37125   37.44731
      O    O10680    29.91956   19.89146   36.21118
      H    H10681    29.30071   20.34721   35.64062
      H    H10682    30.77474   20.04660   35.81015
      O    O10683    29.11339   15.87535   37.81788
      H    H10684    29.04421   14.93435   37.65679
      H    H10685    29.87537   15.96550   38.39014
      O    O10686    21.30405    6.48081   40.14354
      H    H10687    21.12434    5.58338   40.42382
      H    H10688    20.90206    7.02799   40.81824
      O    O10689    30.14390    8.68239   38.04477
      H    H10690    30.52039    7.80958   37.93214
      H    H10691    30.04585    9.01826   37.15382
      O    O10692    24.27440    7.05496   33.50652
      H    H10693    24.38108    7.95533   33.81339
      H    H10694    23.36364    7.00675   33.21598
      O    O10695    33.92632    6.17744   34.97761
      H    H10696    34.74728    5.68709   35.02016
      H    H10697    33.95972    6.76720   35.73079
      O    O10698    21.92272    8.97686   38.75178
      H    H10699    22.60373    9.24069   39.37052
      H    H10700    21.60753    8.13694   39.08558
      O    O10701    38.21627    8.19411   41.54197
      H    H10702    37.51149    8.58228   41.02348
      H    H10703    38.48206    8.88914   42.14406
      O    O10704    24.39879    4.66345   42.10538
      H    H10705    24.40063    5.18069   41.29997
      H    H10706    23.56922    4.18647   42.08237
      O    O10707    30.78590   14.77538   33.60437
      H    H10708    30.16762   15.24032   33.04064
      H    H10709    31.29822   15.46813   34.02132
      O    O10710    34.16246    8.11747   37.75036
      H    H10711    33.45802    8.40596   38.33067
      H    H10712    34.52368    8.92749   37.39032
      O    O10713    24.08032    6.37444   40.11242
      H    H10714    24.42200    7.21865   39.81781
      H    H10715    23.14190    6.52282   40.22896
      O    O10716    35.77874   17.73499   40.01311
      H    H10717    35.09509   18.40490   40.00478
      H    H10718    36.31817   17.93305   39.24760
      O    O10719    37.23116    7.56295   38.14128
      H    H10720    36.28365    7.59685   38.27283
      H    H10721    37.55615    8.37685   38.52622
      O    O10722    27.76311    3.86267   36.43688
      H    H10723    28.07061    3.30736   35.72043
      H    H10724    26.83318    3.99712   36.25418
      O    O10725    33.31462   19.57940   38.72763
      H    H10726    33.32733   19.17563   37.85985
      H    H10727    32.76214   20.35413   38.62377
      O    O10728    34.60916   16.30102   33.81664
      H    H10729    34.49879   15.35846   33.94159
      H    H10730    34.60598   16.66259   34.70292
      O    O10731    32.71316   14.48238   40.05589
      H    H10732    33.13004   14.26840   39.22123
      H    H10733    33.43714   14.73966   40.62675
      O    O10734    30.15119   11.92755   33.17289
      H    H10735    29.22411   11.86129   33.40174
      H    H10736    30.30367   12.86557   33.05842
      O    O10737    30.13809    8.19925   30.16961
      H    H10738    29.19846    8.36065   30.25486
      H    H10739    30.45642    8.91782   29.62321
      O    O10740    36.65937   12.88111   40.14751
      H    H10741    35.83123   12.95042   39.67253
      H    H10742    37.25442   13.46654   39.67910
      O    O10743    34.18091   13.48958   33.67642
      H    H10744    33.56216   13.15154   33.02905
      H    H10745    34.16336   12.84556   34.38434
      O    O10746    33.62357    9.66804   41.09300
      H    H10747    33.21069   10.49341   41.34700
      H    H10748    32.89117    9.08254   40.90064
      O    O10749    34.31358   19.71397   41.78110
      H    H10750    33.83664   20.52119   41.58836
      H    H10751    33.62976   19.06180   41.93372
      O    O10752    32.35738   12.72827   30.68369
      H    H10753    32.79671   11.89051   30.53748
      H    H10754    33.07023   13.36121   30.77011
      O    O10755    30.46692   17.66787   34.65182
      H    H10756    30.90651   18.41031   34.23736
      H    H10757    30.40561   17.91053   35.57571
      O    O10758    35.93910    3.98255   28.99780
      H    H10759    35.62636    4.07523   29.89770
      H    H10760    36.70035    4.56065   28.94754
      O    O10761    22.45731   11.34853   33.45553
      H    H10762    22.33707   12.07474   32.84366
      H    H10763    22.14740   10.57882   32.97832
      O    O10764    37.89350   19.47517   46.85024
      H    H10765    38.36947   19.95345   47.52914
      H    H10766    38.51422   19.40691   46.12479
      O    O10767    20.09585   14.52004   39.26240
      H    H10768    20.17389   14.65492   38.31797
      H    H10769    20.71002   13.81163   39.45521
      O    O10770    21.34061   16.22006   35.67301
      H    H10771    20.93342   16.36152   34.81837
      H    H10772    22.23191   15.93608   35.47013
      O    O10773    37.29683   16.66645   44.01024
      H    H10774    37.42313   16.42764   43.09196
      H    H10775    37.33896   15.83490   44.48245
      O    O10776    31.15850   20.36925   42.57972
      H    H10777    31.67297   20.28005   43.38196
      H    H10778    30.31541   20.71522   42.87251
      O    O10779    33.13394   20.65478   32.00812
      H    H10780    32.97405   20.36508   32.90630
      H    H10781    32.96861   19.87880   31.47264
      O    O10782    32.83655   18.16354   30.56792
      H    H10783    32.14307   18.16127   29.90815
      H    H10784    33.57884   17.73947   30.13734
      O    O10785    32.40155   19.78981   34.64277
      H    H10786    32.85724   19.00875   34.95663
      H    H10787    32.74080   20.50049   35.18689
      O    O10788    37.14923    8.71970   44.97521
      H    H10789    36.53365    9.22766   44.44676
      H    H10790    36.82887    7.81953   44.91781
      O    O10791    20.15180   15.56146   41.80184
      H    H10792    20.31491   15.09199   40.98378
      H    H10793    20.61705   15.05381   42.46673
      O    O10794    24.92368    4.69203   36.83790
      H    H10795    24.48049    5.47299   36.50635
      H    H10796    25.48218    5.01502   37.54499
      O    O10797    29.21066    7.55889   42.44143
      H    H10798    28.74860    7.76719   43.25342
      H    H10799    28.80847    6.74482   42.13850
      O    O10800    34.21111    8.77978   43.57110
      H    H10801    33.36047    8.48036   43.89200
      H    H10802    34.05129    9.02398   42.65948
      O    O10803    31.30608   10.27996   45.67098
      H    H10804    31.63142    9.44633   45.33120
      H    H10805    32.09411   10.80281   45.81881
      O    O10806    28.03956    4.31310   31.71848
      H    H10807    27.41498    4.30909   32.44381
      H    H10808    27.95257    3.44620   31.32208
      O    O10809    26.96127    5.23677   38.69686
      H    H10810    27.25850    6.14305   38.61606
      H    H10811    27.50982    4.74864   38.08282
      O    O10812    31.94488    9.82173   33.16509
      H    H10813    31.34577   10.54531   32.98145
      H    H10814    32.49284    9.75941   32.38273
      O    O10815    30.55136    8.45808   35.19542
      H    H10816    30.94432    8.77530   34.38229
      H    H10817    30.91305    7.57927   35.30987
      O    O10818    22.28608    7.12532   43.38543
      H    H10819    21.89241    7.97284   43.59271
      H    H10820    21.59792    6.48795   43.57629
      O    O10821    28.86058    7.20881   46.45510
      H    H10822    28.17041    7.01603   47.08971
      H    H10823    29.60381    7.49228   46.98753
      O    O10824    19.58778    5.04816   37.41844
      H    H10825    19.29909    5.61845   38.13093
      H    H10826    20.33236    4.56861   37.78156
      O    O10827    19.77480    8.99017   28.62871
      H    H10828    19.69227    9.93325   28.77021
      H    H10829    19.42311    8.84766   27.74994
      O    O10830    31.13688   11.04866   39.29049
      H    H10831    30.40499   11.55734   39.63950
      H    H10832    30.73931   10.23165   38.98937
      O    O10833    27.57462    7.72408   37.69574
      H    H10834    27.57822    7.28307   36.84620
      H    H10835    28.46973    8.04581   37.80293
      O    O10836    23.42485    7.60673   36.65516
      H    H10837    23.08486    8.08425   37.41187
      H    H10838    22.66259    7.15324   36.29527
      O    O10839    27.63663    8.72528   30.68642
      H    H10840    27.75791    8.68393   31.63500
      H    H10841    27.25148    9.58770   30.53109
      O    O10842    31.59947    6.50202   38.70279
      H    H10843    31.61674    6.95289   39.54697
      H    H10844    31.35103    5.60259   38.91613
      O    O10845    35.02654    3.91524   44.54143
      H    H10846    35.35112    3.18421   45.06722
      H    H10847    35.06219    3.59661   43.63953
      O    O10848    21.72570   14.93660   43.96142
      H    H10849    21.34118   14.29597   44.55972
      H    H10850    22.03692   15.64021   44.53090
      O    O10851    20.73946    6.52862   35.57163
      H    H10852    20.45415    6.16419   36.40949
      H    H10853    20.67735    5.79667   34.95795
      O    O10854    34.95233   14.02775   38.15003
      H    H10855    35.67224   14.52328   37.75964
      H    H10856    34.75051   13.34954   37.50542
      O    O10857    30.41332    5.42155   32.29297
      H    H10858    29.59978    4.92287   32.21750
      H    H10859    30.21952    6.26137   31.87660
      O    O10860    30.33421   14.09866   44.03693
      H    H10861    30.26794   13.17823   43.78269
      H    H10862    29.70472   14.19620   44.75139
      O    O10863    33.12816    9.79351   30.58918
      H    H10864    34.01612   10.10524   30.41432
      H    H10865    33.09867    8.92074   30.19724
      O    O10866    29.12422   15.96588   31.26800
      H    H10867    29.46579   16.71011   30.77233
      H    H10868    28.29549   16.27900   31.63048
      O    O10869    21.72172   11.66539   42.90784
      H    H10870    21.36322   12.33078   43.49518
      H    H10871    21.42718   10.83375   43.27910
      O    O10872    30.26588   16.92072   43.78731
      H    H10873    30.28033   15.98881   43.56920
      H    H10874    29.55839   17.00669   44.42629
      O    O10875    35.39959   11.10470   30.05717
      H    H10876    35.31596   11.53612   29.20681
      H    H10877    36.11901   11.56453   30.48985
      O    O10878    36.47700   13.56145   43.13417
      H    H10879    35.75182   14.15433   42.93711
      H    H10880    37.00455   13.55380   42.33550
      O    O10881    36.42831   17.95892   32.78538
      H    H10882    35.78593   17.30449   33.05976
      H    H10883    36.04138   18.36443   32.00945
      O    O10884    32.00696   15.28747   36.63255
      H    H10885    32.35934   14.69028   35.97269
      H    H10886    31.12319   14.96189   36.80338
      O    O10887    20.23253   11.66452   29.53130
      H    H10888    21.10201   11.94700   29.81489
      H    H10889    19.74156   12.47811   29.41618
      O    O10890    29.69927   18.56247   40.88136
      H    H10891    30.34349   18.76841   41.55870
      H    H10892    30.06221   17.80131   40.42844
      O    O10893    23.29719    3.39560   34.12438
      H    H10894    23.16865    3.38739   35.07287
      H    H10895    22.47339    3.73391   33.77348
      O    O10896    30.97248   16.56571   39.59910
      H    H10897    31.61470   15.86502   39.71232
      H    H10898    31.49741   17.34555   39.41879
      O    O10899    34.81805   16.85057   29.32302
      H    H10900    34.59181   16.13361   29.91548
      H    H10901    34.42767   16.60181   28.48519
      O    O10902    32.74624   17.36520   42.80271
      H    H10903    33.08186   17.95187   43.48050
      H    H10904    31.82627   17.23447   43.03249
      O    O10905    20.29658    5.15472   43.58505
      H    H10906    19.58243    5.35441   44.19031
      H    H10907    20.71608    4.37867   43.95653
      O    O10908    34.39968   14.76776   30.98443
      H    H10909    34.11185   15.22903   31.77222
      H    H10910    35.19489   14.30754   31.25286
      O    O10911    28.57510   17.41433   45.97152
      H    H10912    28.25479   16.69526   46.51609
      H    H10913    27.90093   18.08984   46.04512
      O    O10914    31.79046    7.64695   41.33520
      H    H10915    32.15854    6.82647   41.66315
      H    H10916    30.93028    7.70714   41.75076
      O    O10917    35.15666    6.60264   32.14395
      H    H10918    34.52798    6.70721   31.42978
      H    H10919    34.66185    6.82232   32.93334
      O    O10920    29.60248   18.32320   29.57735
      H    H10921    29.70367   18.11960   28.64755
      H    H10922    28.70265   18.06903   29.78213
      O    O10923    28.75066   10.30091   41.55899
      H    H10924    29.24918   10.77549   42.22418
      H    H10925    28.89295    9.37726   41.76600
      O    O10926    31.15661    5.60630   34.99932
      H    H10927    31.03339    5.62492   34.05027
      H    H10928    32.10506    5.65420   35.11916
      O    O10929    25.32857    7.18974   30.93481
      H    H10930    26.17762    7.62676   30.86883
      H    H10931    24.96169    7.50177   31.76202
      O    O10932    35.95734    6.51770   42.40183
      H    H10933    35.45470    7.25824   42.74121
      H    H10934    36.77301    6.90610   42.08551
      O    O10935    34.24954   11.76102   35.84797
      H    H10936    33.30856   11.77604   36.02274
      H    H10937    34.56395   10.97462   36.29400
      O    O10938    22.92238   10.87549   30.09165
      H    H10939    23.00274    9.92824   30.20339
      H    H10940    23.81436   11.20618   30.19772
      O    O10941    36.25210   18.93191   37.52339
      H    H10942    36.37684   19.75502   37.99578
      H    H10943    37.11866   18.72098   37.17581
      O    O10944    22.72968   20.20963   46.38367
      H    H10945    23.53096   20.53084   46.79721
      H    H10946    22.21487   19.84919   47.10566
      O    O10947    31.56615   16.31762   46.33121
      H    H10948    30.95996   16.34078   45.59078
      H    H10949    31.26156   15.58592   46.86793
      O    O10950    32.99618   20.04565   44.94215
      H    H10951    33.94836   19.96145   44.89217
      H    H10952    32.84901   20.70982   45.61553
      O    O10953    35.88710   19.42507   30.44134
      H    H10954    35.60125   19.01158   29.62676
      H    H10955    35.68906   20.35384   30.32139
      O    O10956    20.44946   12.69698   45.32727
      H    H10957    20.95337   12.11771   45.89889
      H    H10958    19.71021   12.98100   45.86491
      O    O10959    30.59210   14.48040   29.48610
      H    H10960    30.04311   14.92733   30.13037
      H    H10961    31.21403   13.97533   30.00987
      O    O10962    34.64559   15.83461   45.41832
      H    H10963    35.38654   16.17219   44.91507
      H    H10964    33.88286   16.00382   44.86530
      O    O10965    22.48177   10.83994   46.22228
      H    H10966    22.52231   10.54133   47.13080
      H    H10967    23.33632   11.24070   46.06303
      O    O10968    28.77238   12.46325   28.63034
      H    H10969    29.29294   11.74816   28.26445
      H    H10970    29.41922   13.10184   28.93039
      O    O10971    33.32016   13.88609   43.95385
      H    H10972    33.73426   14.04060   44.80289
      H    H10973    32.38526   14.01162   44.11642
      O    O10974    33.79238   11.22571   45.95776
      H    H10975    34.37445   10.47094   45.86981
      H    H10976    33.96855   11.75645   45.18091
      O    O10977    24.90958    6.38539   44.26946
      H    H10978    24.81527    5.76746   43.54454
      H    H10979    24.32932    7.11201   44.04245
      O    O10980    27.67573    4.94271   41.30219
      H    H10981    27.22746    4.96514   40.45675
      H    H10982    27.04225    4.54461   41.89922
      O    O10983    30.41807   11.56976   43.30722
      H    H10984    30.53769   10.97387   44.04671
      H    H10985    31.27747   11.60673   42.88735
      O    O10986    32.75686   12.12348   41.88347
      H    H10987    32.23038   12.64774   41.27999
      H    H10988    33.10000   12.75622   42.51445
      O    O10989    27.18495    8.11190   44.56480
      H    H10990    27.77492    7.80348   45.25259
      H    H10991    26.36697    7.63987   44.72079
      O    O10992    32.00429    7.72848   44.79811
      H    H10993    31.31584    7.06663   44.73311
      H    H10994    32.72489    7.28230   45.24295
      O    O10995    32.63433    4.32364   30.85713
      H    H10996    32.91456    3.48043   31.21307
      H    H10997    31.86091    4.55595   31.37101
      O    O10998    23.95378    6.61288   28.31623
      H    H10999    24.25637    6.61962   27.40815
      H    H11000    24.69324    6.26266   28.81300
      O    O11001    28.78865   21.37856   43.29788
      H    H11002    28.71452   22.28208   43.60511
      H    H11003    27.88653   21.05975   43.27008
      O    O11004    27.17227    5.55634   29.30185
      H    H11005    26.82447    4.87874   28.72210
      H    H11006    27.37355    5.09529   30.11619
      O    O11007    29.33718   20.54442   30.92051
      H    H11008    30.23226   20.88291   30.94239
      H    H11009    29.36894   19.82236   30.29294
      O    O11010    20.19137   18.70602   36.60124
      H    H11011    20.52168   17.83813   36.36910
      H    H11012    20.62047   18.91188   37.43173
      O    O11013    36.31661   19.07478   43.62713
      H    H11014    35.71681   19.13404   42.88352
      H    H11015    36.44600   18.13528   43.75682
      O    O11016    37.55676   16.81656   28.96410
      H    H11017    36.72605   16.88423   29.43483
      H    H11018    37.73394   17.70698   28.66079
      O    O11019    37.01240   13.56131   31.46752
      H    H11020    37.77430   14.13098   31.57349
      H    H11021    37.02784   12.99403   32.23835
      O    O11022    20.51284   12.08511   35.69829
      H    H11023    19.85772   11.81627   35.05426
      H    H11024    21.35063   11.97555   35.24849
      O    O11025    38.01840   14.41632   36.31172
      H    H11026    38.38928   13.63305   35.90531
      H    H11027    38.65859   15.10523   36.13345
      O    O11028    35.00178   15.79998   41.72475
      H    H11029    34.18776   16.22970   41.98733
      H    H11030    35.40920   16.41182   41.11165
      O    O11031    37.06432   13.85475   28.62478
      H    H11032    37.33921   14.76264   28.49670
      H    H11033    36.87540   13.79100   29.56097
      O    O11034    33.46188    6.87923   29.92014
      H    H11035    33.88037    6.69233   29.07980
      H    H11036    33.15549    6.02714   30.23043
      O    O11037    36.96086   11.79165   33.61772
      H    H11038    36.58522   11.02444   33.18585
      H    H11039    36.23117   12.17392   34.10521
      O    O11040    21.55043   12.47036   40.23862
      H    H11041    21.91774   12.38310   41.11823
      H    H11042    20.98151   11.70702   40.13931
      O    O11043    36.35082   10.93880   43.25167
      H    H11044    36.11943   10.71008   42.35147
      H    H11045    36.61127   11.85876   43.20616
      O    O11046    21.10203    9.38127   44.14447
      H    H11047    20.20764    9.34795   44.48384
      H    H11048    21.64179    9.57995   44.90959
      O    O11049    34.78962    6.16444   46.02964
      H    H11050    35.66664    6.17278   46.41304
      H    H11051    34.80171    5.42753   45.41888
      O    O11052    19.72665    9.29500   31.64082
      H    H11053    18.82305    9.55802   31.46599
      H    H11054    20.21071    9.56612   30.86082
      O    O11055    36.23595   10.01740   36.91844
      H    H11056    36.75970    9.52366   36.28746
      H    H11057    36.82189   10.15243   37.66320
      O    O11058    36.41492   10.10138   40.44040
      H    H11059    35.46519   10.06774   40.55490
      H    H11060    36.59622   11.01140   40.20537
      O    O11061    22.26937    8.35155   29.55026
      H    H11062    22.97854    7.92987   29.06499
      H    H11063    21.55336    8.41908   28.91860
      O    O11064    21.91678    4.40549   28.59053
      H    H11065    22.63960    4.94638   28.90865
      H    H11066    22.18924    4.13183   27.71468
      O    O11067    35.72595    9.27473   32.85768
      H    H11068    36.22186    9.04182   33.64257
      H    H11069    35.52756    8.43592   32.44145
      O    O11070    21.60600    3.65610   38.49279
      H    H11071    22.25362    3.10584   38.05230
      H    H11072    22.02619    3.91042   39.31437
      O    O11073    37.15466    7.91083   35.39145
      H    H11074    37.04459    7.75643   36.32968
      H    H11075    37.91542    7.38292   35.14899
      O    O11076    35.50124    3.85024   41.84975
      H    H11077    36.13846    4.46365   42.21567
      H    H11078    35.64873    3.88631   40.90467
      O    O11079    38.04369    5.74162   28.63207
      H    H11080    38.96862    5.60974   28.42389
      H    H11081    38.02127    5.82090   29.58571
      O    O11082    38.11754    6.51269   31.25774
      H    H11083    37.32269    6.44720   31.78703
      H    H11084    38.32187    7.44775   31.24627
      O    O11085    35.05938   20.55184   35.25158
      H    H11086    35.65529   20.23030   34.57502
      H    H11087    35.31720   20.07902   36.04290
      O    O11088    21.35920    3.81167   41.23532
      H    H11089    21.01068    4.26805   42.00114
      H    H11090    21.02797    2.91738   41.31756
      O    O11091    22.96564   16.98363   45.40064
      H    H11092    22.92260   16.61292   46.28208
      H    H11093    23.09674   17.92139   45.54082
      O    O11094    28.87168    5.00286   44.75726
      H    H11095    28.81057    5.59504   45.50680
      H    H11096    29.81172    4.89546   44.61229
      O    O11097    31.50914    4.65987   44.39649
      H    H11098    32.12318    4.97779   43.73460
      H    H11099    32.05410    4.17472   45.01608
      O    O11100    37.92666   20.55903   41.80267
      H    H11101    37.43249   20.95592   41.08539
      H    H11102    37.31799   19.93395   42.19640
      O    O11103    22.03127    3.33929   44.51040
      H    H11104    22.57957    3.15810   43.74701
      H    H11105    22.09680    2.54870   45.04603
      O    O11106    22.80444   19.92986   42.52042
      H    H11107    22.21047   19.79833   43.25942
      H    H11108    22.79683   19.09367   42.05463
      O    O11109    32.24994    3.22308   40.72342
      H    H11110    31.37593    3.55659   40.52071
      H    H11111    32.14102    2.75040   41.54861
      O    O11112    33.15714    5.43017   42.10759
      H    H11113    32.82848    4.61534   41.72776
      H    H11114    34.10537    5.38715   41.98416
      O    O11115    35.61060   21.20137   39.08135
      H    H11116    35.15090   21.95295   38.70715
      H    H11117    34.98185   20.48202   39.02283
      O    O11118    22.43567   17.29569   41.47122
      H    H11119    21.70907   16.67622   41.40382
      H    H11120    22.49658   17.68976   40.60103
      O    O11121    28.77973   20.40104   39.08306
      H    H11122    29.06751   20.14647   38.20636
      H    H11123    29.29205   19.84878   39.67362
      O    O11124    29.99743    4.14006   39.66271
      H    H11125    29.21461    4.61461   39.94239
      H    H11126    29.70372    3.23555   39.55403
      O    O11127    34.54953    4.84237   37.70762
      H    H11128    34.99034    4.78688   36.85978
      H    H11129    34.28029    5.75817   37.77864
      O    O11130    36.41339    4.47390   35.71850
      H    H11131    36.35223    3.53002   35.57160
      H    H11132    37.19259    4.58191   36.26385
      O    O11133    20.71867   20.61313   34.68090
      H    H11134    20.55087   19.98020   35.37909
      H    H11135    19.85212   20.81907   34.33032
      O    O11136    21.34147    4.44481   32.18408
      H    H11137    22.09940    4.55770   31.61049
      H    H11138    20.87918    5.28173   32.13843
      O    O11139    27.88285    6.55874   35.17431
      H    H11140    27.07030    6.18443   34.83390
      H    H11141    28.38701    5.80325   35.47643
      O    O11142    32.38535    3.22298   36.41262
      H    H11143    32.98828    3.79500   36.88747
      H    H11144    31.64465    3.78693   36.19001
      O    O11145    35.52881    3.62514   31.68665
      H    H11146    35.72387    4.52348   31.95339
      H    H11147    34.74179    3.39385   32.17994
      O    O11148    23.71398    4.97122   30.72428
      H    H11149    24.24326    4.18420   30.59507
      H    H11150    24.34681    5.65034   30.95783
      O    O11151    25.90777    4.70873   33.77882
      H    H11152    25.27804    4.00746   33.94583
      H    H11153    25.36828    5.46914   33.56213
      O    O11154    28.84696   21.32265   46.44988
      H    H11155    29.77369   21.08708   46.49348
      H    H11156    28.83200   22.14985   45.96848
      O    O11157    37.08147   20.86521   33.44730
      H    H11158    37.25669   20.17898   32.80340
      H    H11159    36.38362   21.38992   33.05497
      O    O11160    26.03332    3.98713   46.21407
      H    H11161    25.75175    4.49049   45.45015
      H    H11162    26.41529    3.18930   45.84828
      O    O11163    32.63487    3.40249   46.79211
      H    H11164    32.52141    3.72195   47.68727
      H    H11165    33.45184    3.80374   46.49584
      O    O11166    35.41472   20.54964   46.27398
      H    H11167    36.20725   20.05456   46.06658
      H    H11168    35.70803   21.22865   46.88154
      O    O11169    -6.00802   30.19608   35.92994
      H    H11170    -6.08861   29.28154   35.65911
      H    H11171    -6.42157   30.69279   35.22391
      O    O11172    -7.87621   31.97399   37.81086
      H    H11173    -8.65200   31.49403   38.10072
      H    H11174    -7.22492   31.29455   37.63648
      O    O11175    -3.85547   36.38000   36.59078
      H    H11176    -4.31732   35.60873   36.91949
      H    H11177    -3.04291   36.40661   37.09602
      O    O11178    -7.62914   38.66581   36.21118
      H    H11179    -8.24799   39.12156   35.64062
      H    H11180    -6.77396   38.82095   35.81015
      O    O11181    -8.43531   34.64970   37.81788
      H    H11182    -8.50449   33.70870   37.65679
      H    H11183    -7.67333   34.73985   38.39014
      O    O11184    -7.40480   27.45674   38.04477
      H    H11185    -7.02831   26.58393   37.93214
      H    H11186    -7.50285   27.79261   37.15382
      O    O11187    -3.62238   24.95179   34.97761
      H    H11188    -2.80142   24.46144   35.02016
      H    H11189    -3.58898   25.54155   35.73079
      O    O11190     0.66757   26.96846   41.54197
      H    H11191    -0.03721   27.35663   41.02348
      H    H11192     0.93336   27.66349   42.14406
      O    O11193    -6.76280   33.54973   33.60437
      H    H11194    -7.38108   34.01467   33.04064
      H    H11195    -6.25048   34.24248   34.02132
      O    O11196    -3.38624   26.89182   37.75036
      H    H11197    -4.09068   27.18031   38.33067
      H    H11198    -3.02502   27.70184   37.39032
      O    O11199    -1.76996   36.50934   40.01311
      H    H11200    -2.45361   37.17925   40.00478
      H    H11201    -1.23053   36.70740   39.24760
      O    O11202    -0.31754   26.33730   38.14128
      H    H11203    -1.26505   26.37120   38.27283
      H    H11204     0.00745   27.15120   38.52622
      O    O11205    -4.23408   38.35375   38.72763
      H    H11206    -4.22137   37.94998   37.85985
      H    H11207    -4.78656   39.12848   38.62377
      O    O11208    -2.93954   35.07537   33.81664
      H    H11209    -3.04991   34.13281   33.94159
      H    H11210    -2.94272   35.43694   34.70292
      O    O11211    -4.83554   33.25673   40.05589
      H    H11212    -4.41866   33.04275   39.22123
      H    H11213    -4.11156   33.51401   40.62675
      O    O11214    -7.39751   30.70190   33.17289
      H    H11215    -8.32459   30.63564   33.40174
      H    H11216    -7.24503   31.63992   33.05842
      O    O11217    -7.41061   26.97360   30.16961
      H    H11218    -8.35024   27.13500   30.25486
      H    H11219    -7.09228   27.69217   29.62321
      O    O11220    -0.88933   31.65546   40.14751
      H    H11221    -1.71747   31.72477   39.67253
      H    H11222    -0.29428   32.24089   39.67910
      O    O11223    -3.36779   32.26393   33.67642
      H    H11224    -3.98654   31.92589   33.02905
      H    H11225    -3.38534   31.61991   34.38434
      O    O11226    -3.92513   28.44239   41.09300
      H    H11227    -4.33801   29.26776   41.34700
      H    H11228    -4.65753   27.85689   40.90064
      O    O11229    -3.23512   38.48832   41.78110
      H    H11230    -3.71206   39.29554   41.58836
      H    H11231    -3.91894   37.83615   41.93372
      O    O11232    -5.19132   31.50262   30.68369
      H    H11233    -4.75199   30.66486   30.53748
      H    H11234    -4.47847   32.13556   30.77011
      O    O11235    -7.08178   36.44222   34.65182
      H    H11236    -6.64219   37.18466   34.23736
      H    H11237    -7.14309   36.68488   35.57571
      O    O11238    -1.60960   22.75690   28.99780
      H    H11239    -1.92234   22.84958   29.89770
      H    H11240    -0.84835   23.33500   28.94754
      O    O11241     0.34480   38.24952   46.85024
      H    H11242     0.82077   38.72780   47.52914
      H    H11243     0.96552   38.18126   46.12479
      O    O11244    -0.25187   35.44080   44.01024
      H    H11245    -0.12557   35.20199   43.09196
      H    H11246    -0.20974   34.60925   44.48245
      O    O11247    -6.39020   39.14360   42.57972
      H    H11248    -5.87573   39.05440   43.38196
      H    H11249    -7.23329   39.48957   42.87251
      O    O11250    -4.41476   39.42913   32.00812
      H    H11251    -4.57465   39.13943   32.90630
      H    H11252    -4.58009   38.65315   31.47264
      O    O11253    -4.71215   36.93789   30.56792
      H    H11254    -5.40563   36.93562   29.90815
      H    H11255    -3.96986   36.51382   30.13734
      O    O11256    -5.14715   38.56416   34.64277
      H    H11257    -4.69146   37.78310   34.95663
      H    H11258    -4.80790   39.27484   35.18689
      O    O11259    -0.39947   27.49405   44.97521
      H    H11260    -1.01505   28.00201   44.44676
      H    H11261    -0.71983   26.59388   44.91781
      O    O11262    -8.33804   26.33324   42.44143
      H    H11263    -8.80010   26.54154   43.25342
      H    H11264    -8.74023   25.51917   42.13850
      O    O11265    -3.33759   27.55413   43.57110
      H    H11266    -4.18823   27.25471   43.89200
      H    H11267    -3.49741   27.79833   42.65948
      O    O11268    -6.24262   29.05431   45.67098
      H    H11269    -5.91728   28.22068   45.33120
      H    H11270    -5.45459   29.57716   45.81881
      O    O11271    -5.60382   28.59608   33.16509
      H    H11272    -6.20293   29.31966   32.98145
      H    H11273    -5.05586   28.53376   32.38273
      O    O11274    -6.99734   27.23243   35.19542
      H    H11275    -6.60438   27.54965   34.38229
      H    H11276    -6.63565   26.35362   35.30987
      O    O11277    -8.68812   25.98316   46.45510
      H    H11278    -9.37829   25.79038   47.08971
      H    H11279    -7.94489   26.26663   46.98753
      O    O11280    -6.41182   29.82301   39.29049
      H    H11281    -7.14371   30.33169   39.63950
      H    H11282    -6.80939   29.00600   38.98937
      O    O11283    -5.94923   25.27637   38.70279
      H    H11284    -5.93196   25.72724   39.54697
      H    H11285    -6.19767   24.37694   38.91613
      O    O11286    -2.52216   22.68959   44.54143
      H    H11287    -2.19758   21.95856   45.06722
      H    H11288    -2.48651   22.37096   43.63953
      O    O11289    -2.59637   32.80210   38.15003
      H    H11290    -1.87646   33.29763   37.75964
      H    H11291    -2.79819   32.12389   37.50542
      O    O11292    -7.13538   24.19590   32.29297
      H    H11293    -7.94892   23.69722   32.21750
      H    H11294    -7.32918   25.03572   31.87660
      O    O11295    -7.21449   32.87301   44.03693
      H    H11296    -7.28076   31.95258   43.78269
      H    H11297    -7.84398   32.97055   44.75139
      O    O11298    -4.42054   28.56786   30.58918
      H    H11299    -3.53258   28.87959   30.41432
      H    H11300    -4.45003   27.69509   30.19724
      O    O11301    -8.42448   34.74023   31.26800
      H    H11302    -8.08291   35.48446   30.77233
      H    H11303    -9.25321   35.05335   31.63048
      O    O11304    -7.28282   35.69507   43.78731
      H    H11305    -7.26837   34.76316   43.56920
      H    H11306    -7.99031   35.78104   44.42629
      O    O11307    -2.14911   29.87905   30.05717
      H    H11308    -2.23274   30.31047   29.20681
      H    H11309    -1.42969   30.33888   30.48985
      O    O11310    -1.07170   32.33580   43.13417
      H    H11311    -1.79688   32.92868   42.93711
      H    H11312    -0.54415   32.32815   42.33550
      O    O11313    -1.12039   36.73327   32.78538
      H    H11314    -1.76277   36.07884   33.05976
      H    H11315    -1.50732   37.13878   32.00945
      O    O11316    -5.54174   34.06182   36.63255
      H    H11317    -5.18936   33.46463   35.97269
      H    H11318    -6.42551   33.73624   36.80338
      O    O11319    -7.84943   37.33682   40.88136
      H    H11320    -7.20521   37.54276   41.55870
      H    H11321    -7.48649   36.57566   40.42844
      O    O11322    -6.57622   35.34006   39.59910
      H    H11323    -5.93400   34.63937   39.71232
      H    H11324    -6.05129   36.11990   39.41879
      O    O11325    -2.73065   35.62492   29.32302
      H    H11326    -2.95689   34.90796   29.91548
      H    H11327    -3.12103   35.37616   28.48519
      O    O11328    -4.80246   36.13955   42.80271
      H    H11329    -4.46684   36.72622   43.48050
      H    H11330    -5.72243   36.00882   43.03249
      O    O11331    -3.14902   33.54211   30.98443
      H    H11332    -3.43685   34.00338   31.77222
      H    H11333    -2.35381   33.08189   31.25286
      O    O11334    -5.75824   26.42130   41.33520
      H    H11335    -5.39016   25.60082   41.66315
      H    H11336    -6.61842   26.48149   41.75076
      O    O11337    -2.39204   25.37699   32.14395
      H    H11338    -3.02072   25.48156   31.42978
      H    H11339    -2.88685   25.59667   32.93334
      O    O11340    -7.94622   37.09755   29.57735
      H    H11341    -7.84503   36.89395   28.64755
      H    H11342    -8.84605   36.84338   29.78213
      O    O11343    -8.79804   29.07526   41.55899
      H    H11344    -8.29952   29.54984   42.22418
      H    H11345    -8.65575   28.15161   41.76600
      O    O11346    -6.39209   24.38065   34.99932
      H    H11347    -6.51531   24.39927   34.05027
      H    H11348    -5.44364   24.42855   35.11916
      O    O11349    -1.59136   25.29205   42.40183
      H    H11350    -2.09400   26.03259   42.74121
      H    H11351    -0.77569   25.68045   42.08551
      O    O11352    -3.29916   30.53537   35.84797
      H    H11353    -4.24014   30.55039   36.02274
      H    H11354    -2.98475   29.74897   36.29400
      O    O11355    -1.29660   37.70626   37.52339
      H    H11356    -1.17186   38.52937   37.99578
      H    H11357    -0.43004   37.49533   37.17581
      O    O11358    -5.98255   35.09197   46.33121
      H    H11359    -6.58874   35.11513   45.59078
      H    H11360    -6.28714   34.36027   46.86793
      O    O11361    -4.55252   38.82000   44.94215
      H    H11362    -3.60034   38.73580   44.89217
      H    H11363    -4.69969   39.48417   45.61553
      O    O11364    -1.66160   38.19942   30.44134
      H    H11365    -1.94745   37.78593   29.62676
      H    H11366    -1.85964   39.12819   30.32139
      O    O11367    -6.95660   33.25475   29.48610
      H    H11368    -7.50559   33.70168   30.13037
      H    H11369    -6.33467   32.74968   30.00987
      O    O11370    -2.90311   34.60896   45.41832
      H    H11371    -2.16216   34.94654   44.91507
      H    H11372    -3.66584   34.77817   44.86530
      O    O11373    -8.77632   31.23760   28.63034
      H    H11374    -8.25576   30.52251   28.26445
      H    H11375    -8.12948   31.87619   28.93039
      O    O11376    -4.22854   32.66044   43.95385
      H    H11377    -3.81444   32.81495   44.80289
      H    H11378    -5.16344   32.78597   44.11642
      O    O11379    -3.75632   30.00006   45.95776
      H    H11380    -3.17425   29.24529   45.86981
      H    H11381    -3.58015   30.53080   45.18091
      O    O11382    -7.13063   30.34411   43.30722
      H    H11383    -7.01101   29.74822   44.04671
      H    H11384    -6.27123   30.38108   42.88735
      O    O11385    -4.79184   30.89783   41.88347
      H    H11386    -5.31832   31.42209   41.27999
      H    H11387    -4.44870   31.53057   42.51445
      O    O11388    -5.54441   26.50283   44.79811
      H    H11389    -6.23286   25.84098   44.73311
      H    H11390    -4.82381   26.05665   45.24295
      O    O11391    -4.91437   23.09799   30.85713
      H    H11392    -4.63414   22.25478   31.21307
      H    H11393    -5.68779   23.33030   31.37101
      O    O11394    -8.76005   40.15291   43.29788
      H    H11395    -8.83418   41.05643   43.60511
      H    H11396    -9.66217   39.83410   43.27008
      O    O11397    -8.21152   39.31877   30.92051
      H    H11398    -7.31644   39.65726   30.94239
      H    H11399    -8.17976   38.59671   30.29294
      O    O11400    -1.23209   37.84913   43.62713
      H    H11401    -1.83189   37.90839   42.88352
      H    H11402    -1.10270   36.90963   43.75682
      O    O11403     0.00806   35.59091   28.96410
      H    H11404    -0.82265   35.65858   29.43483
      H    H11405     0.18524   36.48133   28.66079
      O    O11406    -0.53630   32.33566   31.46752
      H    H11407     0.22560   32.90533   31.57349
      H    H11408    -0.52086   31.76838   32.23835
      O    O11409     0.46970   33.19067   36.31172
      H    H11410     0.84058   32.40740   35.90531
      H    H11411     1.10989   33.87958   36.13345
      O    O11412    -2.54692   34.57433   41.72475
      H    H11413    -3.36094   35.00405   41.98733
      H    H11414    -2.13950   35.18617   41.11165
      O    O11415    -0.48438   32.62910   28.62478
      H    H11416    -0.20949   33.53699   28.49670
      H    H11417    -0.67330   32.56535   29.56097
      O    O11418    -4.08682   25.65358   29.92014
      H    H11419    -3.66833   25.46668   29.07980
      H    H11420    -4.39321   24.80149   30.23043
      O    O11421    -0.58784   30.56600   33.61772
      H    H11422    -0.96348   29.79879   33.18585
      H    H11423    -1.31753   30.94827   34.10521
      O    O11424    -1.19788   29.71315   43.25167
      H    H11425    -1.42927   29.48443   42.35147
      H    H11426    -0.93743   30.63311   43.20616
      O    O11427    -2.75908   24.93879   46.02964
      H    H11428    -1.88206   24.94713   46.41304
      H    H11429    -2.74699   24.20188   45.41888
      O    O11430    -1.31275   28.79175   36.91844
      H    H11431    -0.78900   28.29801   36.28746
      H    H11432    -0.72681   28.92678   37.66320
      O    O11433    -1.13378   28.87573   40.44040
      H    H11434    -2.08351   28.84209   40.55490
      H    H11435    -0.95248   29.78575   40.20537
      O    O11436    -1.82275   28.04908   32.85768
      H    H11437    -1.32684   27.81617   33.64257
      H    H11438    -2.02114   27.21027   32.44145
      O    O11439    -0.39404   26.68518   35.39145
      H    H11440    -0.50411   26.53078   36.32968
      H    H11441     0.36672   26.15727   35.14899
      O    O11442    -2.04746   22.62459   41.84975
      H    H11443    -1.41024   23.23800   42.21567
      H    H11444    -1.89997   22.66066   40.90467
      O    O11445     0.49499   24.51597   28.63207
      H    H11446     1.41992   24.38409   28.42389
      H    H11447     0.47257   24.59525   29.58571
      O    O11448     0.56884   25.28704   31.25774
      H    H11449    -0.22601   25.22155   31.78703
      H    H11450     0.77317   26.22210   31.24627
      O    O11451    -2.48932   39.32619   35.25158
      H    H11452    -1.89341   39.00465   34.57502
      H    H11453    -2.23150   38.85337   36.04290
      O    O11454    -8.67702   23.77721   44.75726
      H    H11455    -8.73813   24.36939   45.50680
      H    H11456    -7.73698   23.66981   44.61229
      O    O11457    -6.03956   23.43422   44.39649
      H    H11458    -5.42552   23.75214   43.73460
      H    H11459    -5.49460   22.94907   45.01608
      O    O11460     0.37796   39.33338   41.80267
      H    H11461    -0.11621   39.73027   41.08539
      H    H11462    -0.23071   38.70830   42.19640
      O    O11463    -5.29876   21.99743   40.72342
      H    H11464    -6.17277   22.33094   40.52071
      H    H11465    -5.40768   21.52475   41.54861
      O    O11466    -4.39156   24.20452   42.10759
      H    H11467    -4.72022   23.38969   41.72776
      H    H11468    -3.44333   24.16150   41.98416
      O    O11469    -1.93810   39.97572   39.08135
      H    H11470    -2.39780   40.72730   38.70715
      H    H11471    -2.56685   39.25637   39.02283
      O    O11472    -8.76897   39.17539   39.08306
      H    H11473    -8.48119   38.92082   38.20636
      H    H11474    -8.25665   38.62313   39.67362
      O    O11475    -7.55127   22.91441   39.66271
      H    H11476    -8.33409   23.38896   39.94239
      H    H11477    -7.84498   22.00990   39.55403
      O    O11478    -2.99917   23.61672   37.70762
      H    H11479    -2.55836   23.56123   36.85978
      H    H11480    -3.26841   24.53252   37.77864
      O    O11481    -1.13531   23.24825   35.71850
      H    H11482    -1.19647   22.30437   35.57160
      H    H11483    -0.35611   23.35626   36.26385
      O    O11484    -5.16335   21.99733   36.41262
      H    H11485    -4.56042   22.56935   36.88747
      H    H11486    -5.90405   22.56128   36.19001
      O    O11487    -2.01989   22.39949   31.68665
      H    H11488    -1.82483   23.29783   31.95339
      H    H11489    -2.80691   22.16820   32.17994
      O    O11490    -8.70174   40.09700   46.44988
      H    H11491    -7.77501   39.86143   46.49348
      H    H11492    -8.71670   40.92420   45.96848
      O    O11493    -0.46723   39.63956   33.44730
      H    H11494    -0.29201   38.95333   32.80340
      H    H11495    -1.16508   40.16427   33.05497
      O    O11496    -4.91383   22.17684   46.79211
      H    H11497    -5.02729   22.49630   47.68727
      H    H11498    -4.09686   22.57809   46.49584
      O    O11499    -2.13398   39.32399   46.27398
      H    H11500    -1.34145   38.82891   46.06658
      H    H11501    -1.84067   40.00300   46.88154
      O    O11502    12.76633   30.19608   35.92994
      H    H11503    12.68574   29.28154   35.65911
      H    H11504    12.35278   30.69279   35.22391
      O    O11505    10.89814   31.97399   37.81086
      H    H11506    10.12235   31.49403   38.10072
      H    H11507    11.54943   31.29455   37.63648
      O    O11508     4.91472   32.28597   38.68844
      H    H11509     4.08321   32.03084   39.08809
      H    H11510     5.52282   32.35704   39.42423
      O    O11511    14.91888   36.38000   36.59078
      H    H11512    14.45703   35.60873   36.91949
      H    H11513    15.73144   36.40661   37.09602
      O    O11514     4.89485   36.31998   38.88424
      H    H11515     5.19765   35.42975   38.70526
      H    H11516     5.63921   36.87700   38.65647
      O    O11517     3.32392   27.24616   32.47268
      H    H11518     2.43559   27.58775   32.37067
      H    H11519     3.60803   27.04619   31.58076
      O    O11520     1.28722   29.84672   38.35665
      H    H11521     1.85883   29.07894   38.35701
      H    H11522     1.28737   30.14560   37.44731
      O    O11523    11.14521   38.66581   36.21118
      H    H11524    10.52636   39.12156   35.64062
      H    H11525    12.00039   38.82095   35.81015
      O    O11526    10.33904   34.64970   37.81788
      H    H11527    10.26986   33.70870   37.65679
      H    H11528    11.10102   34.73985   38.39014
      O    O11529     2.52970   25.25516   40.14354
      H    H11530     2.34999   24.35773   40.42382
      H    H11531     2.12771   25.80234   40.81824
      O    O11532    11.36955   27.45674   38.04477
      H    H11533    11.74604   26.58393   37.93214
      H    H11534    11.27150   27.79261   37.15382
      O    O11535     5.50005   25.82931   33.50652
      H    H11536     5.60673   26.72968   33.81339
      H    H11537     4.58929   25.78110   33.21598
      O    O11538    15.15197   24.95179   34.97761
      H    H11539    15.97293   24.46144   35.02016
      H    H11540    15.18537   25.54155   35.73079
      O    O11541     3.14837   27.75121   38.75178
      H    H11542     3.82938   28.01504   39.37052
      H    H11543     2.83318   26.91129   39.08558
      O    O11544     7.34083   28.79794   37.83904
      H    H11545     7.84865   29.29604   38.47954
      H    H11546     7.87215   28.02146   37.66297
      O    O11547    19.44192   26.96846   41.54197
      H    H11548    18.73714   27.35663   41.02348
      H    H11549    19.70771   27.66349   42.14406
      O    O11550     5.62444   23.43780   42.10538
      H    H11551     5.62628   23.95504   41.29997
      H    H11552     4.79487   22.96082   42.08237
      O    O11553    12.01155   33.54973   33.60437
      H    H11554    11.39327   34.01467   33.04064
      H    H11555    12.52387   34.24248   34.02132
      O    O11556     6.87472   33.07732   40.28273
      H    H11557     6.54166   33.70421   40.92483
      H    H11558     7.05139   33.60350   39.50289
      O    O11559    15.38811   26.89182   37.75036
      H    H11560    14.68367   27.18031   38.33067
      H    H11561    15.74933   27.70184   37.39032
      O    O11562     5.30597   25.14879   40.11242
      H    H11563     5.64765   25.99300   39.81781
      H    H11564     4.36755   25.29717   40.22896
      O    O11565     6.08663   35.04540   42.09765
      H    H11566     6.70403   35.72050   41.81609
      H    H11567     5.22594   35.45419   42.00640
      O    O11568     1.37987   34.23538   30.97833
      H    H11569     1.00266   34.72409   30.24682
      H    H11570     1.63717   34.90791   31.60898
      O    O11571    17.00439   36.50934   40.01311
      H    H11572    16.32074   37.17925   40.00478
      H    H11573    17.54382   36.70740   39.24760
      O    O11574    18.45681   26.33730   38.14128
      H    H11575    17.50930   26.37120   38.27283
      H    H11576    18.78180   27.15120   38.52622
      O    O11577     8.98876   22.63702   36.43688
      H    H11578     9.29626   22.08171   35.72043
      H    H11579     8.05883   22.77147   36.25418
      O    O11580    14.54027   38.35375   38.72763
      H    H11581    14.55298   37.94998   37.85985
      H    H11582    13.98779   39.12848   38.62377
      O    O11583    15.83481   35.07537   33.81664
      H    H11584    15.72444   34.13281   33.94159
      H    H11585    15.83163   35.43694   34.70292
      O    O11586    13.93881   33.25673   40.05589
      H    H11587    14.35569   33.04275   39.22123
      H    H11588    14.66279   33.51401   40.62675
      O    O11589    11.37684   30.70190   33.17289
      H    H11590    10.44976   30.63564   33.40174
      H    H11591    11.52932   31.63992   33.05842
      O    O11592    11.36374   26.97360   30.16961
      H    H11593    10.42411   27.13500   30.25486
      H    H11594    11.68207   27.69217   29.62321
      O    O11595    17.88502   31.65546   40.14751
      H    H11596    17.05688   31.72477   39.67253
      H    H11597    18.48007   32.24089   39.67910
      O    O11598    15.40656   32.26393   33.67642
      H    H11599    14.78781   31.92589   33.02905
      H    H11600    15.38901   31.61991   34.38434
      O    O11601    14.84922   28.44239   41.09300
      H    H11602    14.43634   29.26776   41.34700
      H    H11603    14.11682   27.85689   40.90064
      O    O11604     6.98250   31.22838   35.95487
      H    H11605     6.57820   30.51610   35.45946
      H    H11606     7.06881   30.88370   36.84367
      O    O11607     7.45067   34.91513   38.11879
      H    H11608     7.15350   34.30968   37.43957
      H    H11609     8.40065   34.95287   38.00772
      O    O11610     5.69536   28.00270   39.73477
      H    H11611     6.24682   28.11223   38.96010
      H    H11612     6.20971   28.37646   40.45029
      O    O11613    15.53923   38.48832   41.78110
      H    H11614    15.06229   39.29554   41.58836
      H    H11615    14.85541   37.83615   41.93372
      O    O11616     6.54251   34.65330   44.76957
      H    H11617     5.64537   34.87730   45.01691
      H    H11618     6.56780   34.77680   43.82071
      O    O11619    13.58303   31.50262   30.68369
      H    H11620    14.02236   30.66486   30.53748
      H    H11621    14.29588   32.13556   30.77011
      O    O11622     5.36963   31.52464   43.34530
      H    H11623     5.23041   32.39692   43.71404
      H    H11624     4.48777   31.18192   43.20010
      O    O11625    11.69257   36.44222   34.65182
      H    H11626    12.13216   37.18466   34.23736
      H    H11627    11.63126   36.68488   35.57571
      O    O11628     7.16767   37.46681   45.55382
      H    H11629     7.13921   37.87110   44.68666
      H    H11630     7.00417   36.53784   45.39098
      O    O11631    17.16475   22.75690   28.99780
      H    H11632    16.85201   22.84958   29.89770
      H    H11633    17.92600   23.33500   28.94754
      O    O11634     3.68296   30.12288   33.45553
      H    H11635     3.56272   30.84909   32.84366
      H    H11636     3.37305   29.35317   32.97832
      O    O11637    19.11915   38.24952   46.85024
      H    H11638    19.59512   38.72780   47.52914
      H    H11639    19.73987   38.18126   46.12479
      O    O11640     1.32150   33.29439   39.26240
      H    H11641     1.39954   33.42927   38.31797
      H    H11642     1.93567   32.58598   39.45521
      O    O11643     2.56626   34.99441   35.67301
      H    H11644     2.15907   35.13587   34.81837
      H    H11645     3.45756   34.71043   35.47013
      O    O11646    18.52248   35.44080   44.01024
      H    H11647    18.64878   35.20199   43.09196
      H    H11648    18.56461   34.60925   44.48245
      O    O11649    12.38415   39.14360   42.57972
      H    H11650    12.89862   39.05440   43.38196
      H    H11651    11.54106   39.48957   42.87251
      O    O11652    14.35959   39.42913   32.00812
      H    H11653    14.19970   39.13943   32.90630
      H    H11654    14.19426   38.65315   31.47264
      O    O11655     6.83843   39.20899   33.78528
      H    H11656     6.66268   38.29254   33.57206
      H    H11657     5.98400   39.56772   34.02506
      O    O11658    14.06220   36.93789   30.56792
      H    H11659    13.36872   36.93562   29.90815
      H    H11660    14.80449   36.51382   30.13734
      O    O11661    13.62720   38.56416   34.64277
      H    H11662    14.08289   37.78310   34.95663
      H    H11663    13.96645   39.27484   35.18689
      O    O11664     1.37745   34.33581   41.80184
      H    H11665     1.54056   33.86634   40.98378
      H    H11666     1.84270   33.82816   42.46673
      O    O11667     6.14933   23.46638   36.83790
      H    H11668     5.70614   24.24734   36.50635
      H    H11669     6.70783   23.78937   37.54499
      O    O11670    10.43631   26.33324   42.44143
      H    H11671     9.97425   26.54154   43.25342
      H    H11672    10.03412   25.51917   42.13850
      O    O11673    15.43676   27.55413   43.57110
      H    H11674    14.58612   27.25471   43.89200
      H    H11675    15.27694   27.79833   42.65948
      O    O11676    12.53173   29.05431   45.67098
      H    H11677    12.85707   28.22068   45.33120
      H    H11678    13.31976   29.57716   45.81881
      O    O11679     9.26521   23.08745   31.71848
      H    H11680     8.64063   23.08344   32.44381
      H    H11681     9.17822   22.22055   31.32208
      O    O11682     8.18692   24.01112   38.69686
      H    H11683     8.48415   24.91740   38.61606
      H    H11684     8.73547   23.52299   38.08282
      O    O11685     5.94075   28.58974   34.56602
      H    H11686     5.71484   28.37346   35.47069
      H    H11687     5.16000   29.02259   34.22062
      O    O11688    13.17053   28.59608   33.16509
      H    H11689    12.57142   29.31966   32.98145
      H    H11690    13.71849   28.53376   32.38273
      O    O11691     8.38067   29.48830   45.23205
      H    H11692     8.28503   28.54777   45.08209
      H    H11693     9.22387   29.70981   44.83686
      O    O11694    11.77701   27.23243   35.19542
      H    H11695    12.16997   27.54965   34.38229
      H    H11696    12.13870   26.35362   35.30987
      O    O11697     3.51173   25.89967   43.38543
      H    H11698     3.11806   26.74719   43.59271
      H    H11699     2.82357   25.26230   43.57629
      O    O11700    10.08623   25.98316   46.45510
      H    H11701     9.39606   25.79038   47.08971
      H    H11702    10.82946   26.26663   46.98753
      O    O11703     0.81343   23.82251   37.41844
      H    H11704     0.52474   24.39280   38.13093
      H    H11705     1.55801   23.34296   37.78156
      O    O11706     1.00045   27.76452   28.62871
      H    H11707     0.91792   28.70760   28.77021
      H    H11708     0.64876   27.62201   27.74994
      O    O11709    12.36253   29.82301   39.29049
      H    H11710    11.63064   30.33169   39.63950
      H    H11711    11.96496   29.00600   38.98937
      O    O11712     8.80027   26.49843   37.69574
      H    H11713     8.80387   26.05742   36.84620
      H    H11714     9.69538   26.82016   37.80293
      O    O11715     4.65050   26.38108   36.65516
      H    H11716     4.31051   26.85860   37.41187
      H    H11717     3.88824   25.92759   36.29527
      O    O11718     8.86228   27.49963   30.68642
      H    H11719     8.98356   27.45828   31.63500
      H    H11720     8.47713   28.36205   30.53109
      O    O11721    12.82512   25.27637   38.70279
      H    H11722    12.84239   25.72724   39.54697
      H    H11723    12.57668   24.37694   38.91613
      O    O11724     7.87443   29.80975   30.08475
      H    H11725     7.30612   29.36157   29.45834
      H    H11726     8.58333   30.16903   29.55126
      O    O11727     2.95135   33.71095   43.96142
      H    H11728     2.56683   33.07032   44.55972
      H    H11729     3.26257   34.41456   44.53090
      O    O11730     9.10106   30.55860   39.44228
      H    H11731     9.46808   30.08446   40.18842
      H    H11732     8.91157   31.43276   39.78312
      O    O11733     1.96511   25.30297   35.57163
      H    H11734     1.67980   24.93854   36.40949
      H    H11735     1.90300   24.57102   34.95795
      O    O11736     6.89100   29.59947   41.76071
      H    H11737     6.58671   30.47867   41.98574
      H    H11738     7.84565   29.65945   41.79645
      O    O11739     5.41918   33.80557   32.35739
      H    H11740     4.64541   33.26533   32.19726
      H    H11741     6.14864   33.28623   32.01917
      O    O11742    16.17798   32.80210   38.15003
      H    H11743    16.89789   33.29763   37.75964
      H    H11744    15.97616   32.12389   37.50542
      O    O11745    11.63897   24.19590   32.29297
      H    H11746    10.82543   23.69722   32.21750
      H    H11747    11.44517   25.03572   31.87660
      O    O11748    11.55986   32.87301   44.03693
      H    H11749    11.49359   31.95258   43.78269
      H    H11750    10.93037   32.97055   44.75139
      O    O11751    14.35381   28.56786   30.58918
      H    H11752    15.24177   28.87959   30.41432
      H    H11753    14.32432   27.69509   30.19724
      O    O11754     5.46292   33.47361   35.99527
      H    H11755     5.98079   32.67043   35.94096
      H    H11756     5.01132   33.41152   36.83695
      O    O11757    10.34987   34.74023   31.26800
      H    H11758    10.69144   35.48446   30.77233
      H    H11759     9.52114   35.05335   31.63048
      O    O11760     2.94737   30.43974   42.90784
      H    H11761     2.58887   31.10513   43.49518
      H    H11762     2.65283   29.60810   43.27910
      O    O11763     6.14869   30.89817   45.79180
      H    H11764     5.84870   31.04388   44.89458
      H    H11765     6.91981   30.33870   45.69914
      O    O11766    11.49153   35.69507   43.78731
      H    H11767    11.50598   34.76316   43.56920
      H    H11768    10.78404   35.78104   44.42629
      O    O11769    16.62524   29.87905   30.05717
      H    H11770    16.54161   30.31047   29.20681
      H    H11771    17.34466   30.33888   30.48985
      O    O11772    17.70265   32.33580   43.13417
      H    H11773    16.97747   32.92868   42.93711
      H    H11774    18.23020   32.32815   42.33550
      O    O11775    17.65396   36.73327   32.78538
      H    H11776    17.01158   36.07884   33.05976
      H    H11777    17.26703   37.13878   32.00945
      O    O11778    13.23261   34.06182   36.63255
      H    H11779    13.58499   33.46463   35.97269
      H    H11780    12.34884   33.73624   36.80338
      O    O11781     9.31894   34.82159   34.03959
      H    H11782    10.00605   35.36851   34.42035
      H    H11783     8.53218   35.36566   34.07455
      O    O11784     1.45818   30.43887   29.53130
      H    H11785     2.32766   30.72135   29.81489
      H    H11786     0.96721   31.25246   29.41618
      O    O11787     8.62166   31.82619   33.65213
      H    H11788     9.07794   32.63671   33.87815
      H    H11789     8.27048   31.50850   34.48398
      O    O11790    10.92492   37.33682   40.88136
      H    H11791    11.56914   37.54276   41.55870
      H    H11792    11.28786   36.57566   40.42844
      O    O11793     4.52284   22.16995   34.12438
      H    H11794     4.39430   22.16174   35.07287
      H    H11795     3.69904   22.50826   33.77348
      O    O11796    12.19813   35.34006   39.59910
      H    H11797    12.84035   34.63937   39.71232
      H    H11798    12.72306   36.11990   39.41879
      O    O11799    16.04370   35.62492   29.32302
      H    H11800    15.81746   34.90796   29.91548
      H    H11801    15.65332   35.37616   28.48519
      O    O11802    13.97189   36.13955   42.80271
      H    H11803    14.30751   36.72622   43.48050
      H    H11804    13.05192   36.00882   43.03249
      O    O11805     1.82530   39.65161   30.09746
      H    H11806     2.18507   40.25054   29.44319
      H    H11807     1.68454   40.19760   30.87097
      O    O11808     1.52223   23.92907   43.58505
      H    H11809     0.80808   24.12876   44.19031
      H    H11810     1.94173   23.15302   43.95653
      O    O11811    15.62533   33.54211   30.98443
      H    H11812    15.33750   34.00338   31.77222
      H    H11813    16.42054   33.08189   31.25286
      O    O11814     1.80949   37.91709   44.57170
      H    H11815     1.91860   36.97657   44.43124
      H    H11816     1.15755   38.18257   43.92308
      O    O11817     9.80075   36.18868   45.97152
      H    H11818     9.48044   35.46961   46.51609
      H    H11819     9.12658   36.86419   46.04512
      O    O11820     7.84217   37.03473   30.91483
      H    H11821     7.83318   37.76770   30.29928
      H    H11822     6.92200   36.78788   31.00753
      O    O11823     3.44283   32.25622   31.65951
      H    H11824     2.83562   32.99611   31.66904
      H    H11825     3.91776   32.34615   30.83333
      O    O11826    13.01611   26.42130   41.33520
      H    H11827    13.38419   25.60082   41.66315
      H    H11828    12.15593   26.48149   41.75076
      O    O11829    16.38231   25.37699   32.14395
      H    H11830    15.75363   25.48156   31.42978
      H    H11831    15.88750   25.59667   32.93334
      O    O11832    10.82813   37.09755   29.57735
      H    H11833    10.92932   36.89395   28.64755
      H    H11834     9.92830   36.84338   29.78213
      O    O11835     8.35071   27.65559   33.55974
      H    H11836     7.64233   28.12422   34.00110
      H    H11837     8.63516   26.99779   34.19426
      O    O11838     9.97631   29.07526   41.55899
      H    H11839    10.47483   29.54984   42.22418
      H    H11840    10.11860   28.15161   41.76600
      O    O11841    12.38226   24.38065   34.99932
      H    H11842    12.25904   24.39927   34.05027
      H    H11843    13.33071   24.42855   35.11916
      O    O11844     9.46994   39.61618   34.27212
      H    H11845     9.72409   39.57832   33.35005
      H    H11846     8.52118   39.48952   34.26494
      O    O11847     6.55422   25.96409   30.93481
      H    H11848     7.40327   26.40111   30.86883
      H    H11849     6.18734   26.27612   31.76202
      O    O11850    17.18299   25.29205   42.40183
      H    H11851    16.68035   26.03259   42.74121
      H    H11852    17.99866   25.68045   42.08551
      O    O11853    15.47519   30.53537   35.84797
      H    H11854    14.53421   30.55039   36.02274
      H    H11855    15.78960   29.74897   36.29400
      O    O11856     5.45336   32.21733   29.40836
      H    H11857     6.21969   32.10547   29.97091
      H    H11858     5.53083   31.52113   28.75604
      O    O11859     4.14803   29.64984   30.09165
      H    H11860     4.22839   28.70259   30.20339
      H    H11861     5.04001   29.98053   30.19772
      O    O11862    17.47775   37.70626   37.52339
      H    H11863    17.60249   38.52937   37.99578
      H    H11864    18.34431   37.49533   37.17581
      O    O11865     4.94951   39.79938   37.19511
      H    H11866     5.68575   39.25092   37.46596
      H    H11867     5.33360   40.66498   37.05571
      O    O11868     1.83405   35.86673   33.06926
      H    H11869     0.90803   36.10885   33.05980
      H    H11870     2.29970   36.69416   32.94773
      O    O11871     3.95533   38.98398   46.38367
      H    H11872     4.75661   39.30519   46.79721
      H    H11873     3.44052   38.62354   47.10566
      O    O11874     8.05974   38.97241   29.01766
      H    H11875     8.85260   39.26129   28.56584
      H    H11876     7.54017   38.54162   28.33891
      O    O11877    12.79180   35.09197   46.33121
      H    H11878    12.18561   35.11513   45.59078
      H    H11879    12.48721   34.36027   46.86793
      O    O11880    14.22183   38.82000   44.94215
      H    H11881    15.17401   38.73580   44.89217
      H    H11882    14.07466   39.48417   45.61553
      O    O11883    17.11275   38.19942   30.44134
      H    H11884    16.82690   37.78593   29.62676
      H    H11885    16.91471   39.12819   30.32139
      O    O11886     1.67511   31.47133   45.32727
      H    H11887     2.17902   30.89206   45.89889
      H    H11888     0.93586   31.75535   45.86491
      O    O11889     8.57748   34.19275   28.88190
      H    H11890     8.47254   33.57798   29.60804
      H    H11891     8.40990   33.66934   28.09820
      O    O11892     8.72891   32.87843   44.86082
      H    H11893     7.96348   33.44693   44.77629
      H    H11894     8.91050   32.58605   43.96765
      O    O11895    11.81775   33.25475   29.48610
      H    H11896    11.26876   33.70168   30.13037
      H    H11897    12.43968   32.74968   30.00987
      O    O11898    15.87124   34.60896   45.41832
      H    H11899    16.61219   34.94654   44.91507
      H    H11900    15.10851   34.77817   44.86530
      O    O11901     3.70742   29.61429   46.22228
      H    H11902     3.74796   29.31568   47.13080
      H    H11903     4.56197   30.01505   46.06303
      O    O11904     7.48526   32.21384   31.38263
      H    H11905     7.90690   32.04783   32.22577
      H    H11906     7.61035   31.40387   30.88814
      O    O11907     5.64800   28.19350   44.18973
      H    H11908     5.11765   27.70259   43.56206
      H    H11909     6.31681   28.62192   43.65552
      O    O11910     9.99803   31.23760   28.63034
      H    H11911    10.51859   30.52251   28.26445
      H    H11912    10.64487   31.87619   28.93039
      O    O11913    14.54581   32.66044   43.95385
      H    H11914    14.95991   32.81495   44.80289
      H    H11915    13.61091   32.78597   44.11642
      O    O11916    15.01803   30.00006   45.95776
      H    H11917    15.60010   29.24529   45.86981
      H    H11918    15.19420   30.53080   45.18091
      O    O11919     6.13523   25.15974   44.26946
      H    H11920     6.04092   24.54181   43.54454
      H    H11921     5.55497   25.88636   44.04245
      O    O11922     8.90138   23.71706   41.30219
      H    H11923     8.45311   23.73949   40.45675
      H    H11924     8.26790   23.31896   41.89922
      O    O11925     9.30733   32.61249   41.92344
      H    H11926     9.72614   33.45577   41.75106
      H    H11927     8.38820   32.74970   41.69412
      O    O11928    11.64372   30.34411   43.30722
      H    H11929    11.76334   29.74822   44.04671
      H    H11930    12.50312   30.38108   42.88735
      O    O11931    13.98251   30.89783   41.88347
      H    H11932    13.45603   31.42209   41.27999
      H    H11933    14.32565   31.53057   42.51445
      O    O11934     6.38115   28.28717   28.32844
      H    H11935     6.18006   27.42390   28.68978
      H    H11936     6.21036   28.20050   27.39060
      O    O11937     7.15807   38.91779   43.03921
      H    H11938     6.62018   39.64240   42.72008
      H    H11939     7.41147   38.44083   42.24895
      O    O11940     8.41060   26.88625   44.56480
      H    H11941     9.00057   26.57783   45.25259
      H    H11942     7.59262   26.41422   44.72079
      O    O11943    13.22994   26.50283   44.79811
      H    H11944    12.54149   25.84098   44.73311
      H    H11945    13.95054   26.05665   45.24295
      O    O11946    13.85998   23.09799   30.85713
      H    H11947    14.14021   22.25478   31.21307
      H    H11948    13.08656   23.33030   31.37101
      O    O11949     5.17943   25.38723   28.31623
      H    H11950     5.48202   25.39397   27.40815
      H    H11951     5.91889   25.03701   28.81300
      O    O11952    10.01430   40.15291   43.29788
      H    H11953     9.94017   41.05643   43.60511
      H    H11954     9.11218   39.83410   43.27008
      O    O11955     8.39792   24.33069   29.30185
      H    H11956     8.05012   23.65309   28.72210
      H    H11957     8.59920   23.86964   30.11619
      O    O11958    10.56283   39.31877   30.92051
      H    H11959    11.45791   39.65726   30.94239
      H    H11960    10.59459   38.59671   30.29294
      O    O11961     4.20244   34.69147   29.14921
      H    H11962     4.63993   35.23444   29.80497
      H    H11963     4.68722   33.86617   29.15885
      O    O11964     1.41702   37.48037   36.60124
      H    H11965     1.74733   36.61248   36.36910
      H    H11966     1.84612   37.68623   37.43173
      O    O11967     6.01322   35.81127   34.26144
      H    H11968     5.71277   35.68777   35.16183
      H    H11969     5.90697   34.95213   33.85301
      O    O11970     1.90605   38.34743   39.33940
      H    H11971     1.46914   38.52751   40.17182
      H    H11972     2.47381   39.10489   39.19757
      O    O11973    17.54226   37.84913   43.62713
      H    H11974    16.94246   37.90839   42.88352
      H    H11975    17.67165   36.90963   43.75682
      O    O11976    18.78241   35.59091   28.96410
      H    H11977    17.95170   35.65858   29.43483
      H    H11978    18.95959   36.48133   28.66079
      O    O11979    18.23805   32.33566   31.46752
      H    H11980    18.99995   32.90533   31.57349
      H    H11981    18.25349   31.76838   32.23835
      O    O11982     1.73849   30.85946   35.69829
      H    H11983     1.08337   30.59062   35.05426
      H    H11984     2.57628   30.74990   35.24849
      O    O11985    19.24405   33.19067   36.31172
      H    H11986    19.61493   32.40740   35.90531
      H    H11987    19.88424   33.87958   36.13345
      O    O11988    16.22743   34.57433   41.72475
      H    H11989    15.41341   35.00405   41.98733
      H    H11990    16.63485   35.18617   41.11165
      O    O11991    18.28997   32.62910   28.62478
      H    H11992    18.56486   33.53699   28.49670
      H    H11993    18.10105   32.56535   29.56097
      O    O11994    14.68753   25.65358   29.92014
      H    H11995    15.10602   25.46668   29.07980
      H    H11996    14.38114   24.80149   30.23043
      O    O11997    18.18651   30.56600   33.61772
      H    H11998    17.81087   29.79879   33.18585
      H    H11999    17.45682   30.94827   34.10521
      O    O12000     2.77608   31.24471   40.23862
      H    H12001     3.14339   31.15745   41.11823
      H    H12002     2.20716   30.48137   40.13931
      O    O12003    17.57647   29.71315   43.25167
      H    H12004    17.34508   29.48443   42.35147
      H    H12005    17.83692   30.63311   43.20616
      O    O12006     2.32768   28.15562   44.14447
      H    H12007     1.43329   28.12230   44.48384
      H    H12008     2.86744   28.35430   44.90959
      O    O12009     0.95230   28.06935   31.64082
      H    H12010     0.04870   28.33237   31.46599
      H    H12011     1.43636   28.34047   30.86082
      O    O12012    17.46160   28.79175   36.91844
      H    H12013    17.98535   28.29801   36.28746
      H    H12014    18.04754   28.92678   37.66320
      O    O12015    17.64057   28.87573   40.44040
      H    H12016    16.69084   28.84209   40.55490
      H    H12017    17.82187   29.78575   40.20537
      O    O12018     3.49502   27.12590   29.55026
      H    H12019     4.20419   26.70422   29.06499
      H    H12020     2.77901   27.19343   28.91860
      O    O12021     3.14243   23.17984   28.59053
      H    H12022     3.86525   23.72073   28.90865
      H    H12023     3.41489   22.90618   27.71468
      O    O12024    16.95160   28.04908   32.85768
      H    H12025    17.44751   27.81617   33.64257
      H    H12026    16.75321   27.21027   32.44145
      O    O12027     2.83165   22.43045   38.49279
      H    H12028     3.47927   21.88019   38.05230
      H    H12029     3.25184   22.68477   39.31437
      O    O12030    18.38031   26.68518   35.39145
      H    H12031    18.27024   26.53078   36.32968
      H    H12032    19.14107   26.15727   35.14899
      O    O12033    16.28503   39.32619   35.25158
      H    H12034    16.88094   39.00465   34.57502
      H    H12035    16.54285   38.85337   36.04290
      O    O12036     2.58485   22.58602   41.23532
      H    H12037     2.23633   23.04240   42.00114
      H    H12038     2.25362   21.69173   41.31756
      O    O12039     4.19129   35.75798   45.40064
      H    H12040     4.14825   35.38727   46.28208
      H    H12041     4.32239   36.69574   45.54082
      O    O12042     7.89189   37.31394   41.00161
      H    H12043     7.65103   37.58140   40.11466
      H    H12044     8.83216   37.48451   41.05670
      O    O12045    10.09733   23.77721   44.75726
      H    H12046    10.03622   24.36939   45.50680
      H    H12047    11.03737   23.66981   44.61229
      O    O12048    12.73479   23.43422   44.39649
      H    H12049    13.34883   23.75214   43.73460
      H    H12050    13.27975   22.94907   45.01608
      O    O12051    19.15231   39.33338   41.80267
      H    H12052    18.65814   39.73027   41.08539
      H    H12053    18.54364   38.70830   42.19640
      O    O12054     3.25692   22.11364   44.51040
      H    H12055     3.80522   21.93245   43.74701
      H    H12056     3.32245   21.32305   45.04603
      O    O12057     4.03009   38.70421   42.52042
      H    H12058     3.43612   38.57268   43.25942
      H    H12059     4.02248   37.86802   42.05463
      O    O12060    13.47559   21.99743   40.72342
      H    H12061    12.60158   22.33094   40.52071
      H    H12062    13.36667   21.52475   41.54861
      O    O12063    14.38279   24.20452   42.10759
      H    H12064    14.05413   23.38969   41.72776
      H    H12065    15.33102   24.16150   41.98416
      O    O12066    16.83625   39.97572   39.08135
      H    H12067    16.37655   40.72730   38.70715
      H    H12068    16.20750   39.25637   39.02283
      O    O12069     3.66132   36.07004   41.47122
      H    H12070     2.93472   35.45057   41.40382
      H    H12071     3.72223   36.46411   40.60103
      O    O12072     7.26583   38.28454   38.25616
      H    H12073     7.78233   37.67328   37.73099
      H    H12074     7.91556   38.78742   38.74726
      O    O12075    10.00538   39.17539   39.08306
      H    H12076    10.29316   38.92082   38.20636
      H    H12077    10.51770   38.62313   39.67362
      O    O12078    11.22308   22.91441   39.66271
      H    H12079    10.44026   23.38896   39.94239
      H    H12080    10.92937   22.00990   39.55403
      O    O12081    15.77518   23.61672   37.70762
      H    H12082    16.21599   23.56123   36.85978
      H    H12083    15.50594   24.53252   37.77864
      O    O12084    17.63904   23.24825   35.71850
      H    H12085    17.57788   22.30437   35.57160
      H    H12086    18.41824   23.35626   36.26385
      O    O12087     1.94432   39.38748   34.68090
      H    H12088     1.77652   38.75455   35.37909
      H    H12089     1.07777   39.59342   34.33032
      O    O12090     2.56712   23.21916   32.18408
      H    H12091     3.32505   23.33205   31.61049
      H    H12092     2.10483   24.05608   32.13843
      O    O12093     9.10850   25.33309   35.17431
      H    H12094     8.29595   24.95878   34.83390
      H    H12095     9.61266   24.57760   35.47643
      O    O12096    13.61100   21.99733   36.41262
      H    H12097    14.21393   22.56935   36.88747
      H    H12098    12.87030   22.56128   36.19001
      O    O12099    16.75446   22.39949   31.68665
      H    H12100    16.94952   23.29783   31.95339
      H    H12101    15.96744   22.16820   32.17994
      O    O12102     3.55059   38.08081   32.12591
      H    H12103     3.02535   38.46161   31.42211
      H    H12104     3.47504   38.70588   32.84688
      O    O12105     4.93963   23.74557   30.72428
      H    H12106     5.46891   22.95855   30.59507
      H    H12107     5.57246   24.42469   30.95783
      O    O12108     7.13342   23.48308   33.77882
      H    H12109     6.50369   22.78181   33.94583
      H    H12110     6.59393   24.24349   33.56213
      O    O12111    10.07261   40.09700   46.44988
      H    H12112    10.99934   39.86143   46.49348
      H    H12113    10.05765   40.92420   45.96848
      O    O12114    18.30712   39.63956   33.44730
      H    H12115    18.48234   38.95333   32.80340
      H    H12116    17.60927   40.16427   33.05497
      O    O12117     7.25897   22.76148   46.21407
      H    H12118     6.97740   23.26484   45.45015
      H    H12119     7.64094   21.96365   45.84828
      O    O12120     6.14988   40.02904   31.00084
      H    H12121     6.88176   39.74497   30.45322
      H    H12122     6.40925   39.79037   31.89077
      O    O12123     5.31136   36.14552   31.00547
      H    H12124     4.68225   36.61403   31.55405
      H    H12125     5.42614   35.30044   31.44009
      O    O12126    16.64037   39.32399   46.27398
      H    H12127    17.43290   38.82891   46.06658
      H    H12128    16.93368   40.00300   46.88154
      O    O12129    31.54068   30.19608   35.92994
      H    H12130    31.46009   29.28154   35.65911
      H    H12131    31.12713   30.69279   35.22391
      O    O12132    29.67249   31.97399   37.81086
      H    H12133    28.89670   31.49403   38.10072
      H    H12134    30.32378   31.29455   37.63648
      O    O12135    23.68907   32.28597   38.68844
      H    H12136    22.85756   32.03084   39.08809
      H    H12137    24.29717   32.35704   39.42423
      O    O12138    33.69323   36.38000   36.59078
      H    H12139    33.23138   35.60873   36.91949
      H    H12140    34.50579   36.40661   37.09602
      O    O12141    23.66920   36.31998   38.88424
      H    H12142    23.97200   35.42975   38.70526
      H    H12143    24.41356   36.87700   38.65647
      O    O12144    22.09827   27.24616   32.47268
      H    H12145    21.20994   27.58775   32.37067
      H    H12146    22.38238   27.04619   31.58076
      O    O12147    20.06157   29.84672   38.35665
      H    H12148    20.63318   29.07894   38.35701
      H    H12149    20.06172   30.14560   37.44731
      O    O12150    29.91956   38.66581   36.21118
      H    H12151    29.30071   39.12156   35.64062
      H    H12152    30.77474   38.82095   35.81015
      O    O12153    29.11339   34.64970   37.81788
      H    H12154    29.04421   33.70870   37.65679
      H    H12155    29.87537   34.73985   38.39014
      O    O12156    21.30405   25.25516   40.14354
      H    H12157    21.12434   24.35773   40.42382
      H    H12158    20.90206   25.80234   40.81824
      O    O12159    30.14390   27.45674   38.04477
      H    H12160    30.52039   26.58393   37.93214
      H    H12161    30.04585   27.79261   37.15382
      O    O12162    24.27440   25.82931   33.50652
      H    H12163    24.38108   26.72968   33.81339
      H    H12164    23.36364   25.78110   33.21598
      O    O12165    33.92632   24.95179   34.97761
      H    H12166    34.74728   24.46144   35.02016
      H    H12167    33.95972   25.54155   35.73079
      O    O12168    21.92272   27.75121   38.75178
      H    H12169    22.60373   28.01504   39.37052
      H    H12170    21.60753   26.91129   39.08558
      O    O12171    26.11518   28.79794   37.83904
      H    H12172    26.62300   29.29604   38.47954
      H    H12173    26.64650   28.02146   37.66297
      O    O12174    38.21627   26.96846   41.54197
      H    H12175    37.51149   27.35663   41.02348
      H    H12176    38.48206   27.66349   42.14406
      O    O12177    24.39879   23.43780   42.10538
      H    H12178    24.40063   23.95504   41.29997
      H    H12179    23.56922   22.96082   42.08237
      O    O12180    30.78590   33.54973   33.60437
      H    H12181    30.16762   34.01467   33.04064
      H    H12182    31.29822   34.24248   34.02132
      O    O12183    25.64907   33.07732   40.28273
      H    H12184    25.31601   33.70421   40.92483
      H    H12185    25.82574   33.60350   39.50289
      O    O12186    34.16246   26.89182   37.75036
      H    H12187    33.45802   27.18031   38.33067
      H    H12188    34.52368   27.70184   37.39032
      O    O12189    24.08032   25.14879   40.11242
      H    H12190    24.42200   25.99300   39.81781
      H    H12191    23.14190   25.29717   40.22896
      O    O12192    24.86098   35.04540   42.09765
      H    H12193    25.47838   35.72050   41.81609
      H    H12194    24.00029   35.45419   42.00640
      O    O12195    20.15422   34.23538   30.97833
      H    H12196    19.77701   34.72409   30.24682
      H    H12197    20.41152   34.90791   31.60898
      O    O12198    35.77874   36.50934   40.01311
      H    H12199    35.09509   37.17925   40.00478
      H    H12200    36.31817   36.70740   39.24760
      O    O12201    37.23116   26.33730   38.14128
      H    H12202    36.28365   26.37120   38.27283
      H    H12203    37.55615   27.15120   38.52622
      O    O12204    27.76311   22.63702   36.43688
      H    H12205    28.07061   22.08171   35.72043
      H    H12206    26.83318   22.77147   36.25418
      O    O12207    33.31462   38.35375   38.72763
      H    H12208    33.32733   37.94998   37.85985
      H    H12209    32.76214   39.12848   38.62377
      O    O12210    34.60916   35.07537   33.81664
      H    H12211    34.49879   34.13281   33.94159
      H    H12212    34.60598   35.43694   34.70292
      O    O12213    32.71316   33.25673   40.05589
      H    H12214    33.13004   33.04275   39.22123
      H    H12215    33.43714   33.51401   40.62675
      O    O12216    30.15119   30.70190   33.17289
      H    H12217    29.22411   30.63564   33.40174
      H    H12218    30.30367   31.63992   33.05842
      O    O12219    30.13809   26.97360   30.16961
      H    H12220    29.19846   27.13500   30.25486
      H    H12221    30.45642   27.69217   29.62321
      O    O12222    36.65937   31.65546   40.14751
      H    H12223    35.83123   31.72477   39.67253
      H    H12224    37.25442   32.24089   39.67910
      O    O12225    34.18091   32.26393   33.67642
      H    H12226    33.56216   31.92589   33.02905
      H    H12227    34.16336   31.61991   34.38434
      O    O12228    33.62357   28.44239   41.09300
      H    H12229    33.21069   29.26776   41.34700
      H    H12230    32.89117   27.85689   40.90064
      O    O12231    25.75685   31.22838   35.95487
      H    H12232    25.35255   30.51610   35.45946
      H    H12233    25.84316   30.88370   36.84367
      O    O12234    26.22502   34.91513   38.11879
      H    H12235    25.92785   34.30968   37.43957
      H    H12236    27.17500   34.95287   38.00772
      O    O12237    24.46971   28.00270   39.73477
      H    H12238    25.02117   28.11223   38.96010
      H    H12239    24.98406   28.37646   40.45029
      O    O12240    34.31358   38.48832   41.78110
      H    H12241    33.83664   39.29554   41.58836
      H    H12242    33.62976   37.83615   41.93372
      O    O12243    25.31686   34.65330   44.76957
      H    H12244    24.41972   34.87730   45.01691
      H    H12245    25.34215   34.77680   43.82071
      O    O12246    32.35738   31.50262   30.68369
      H    H12247    32.79671   30.66486   30.53748
      H    H12248    33.07023   32.13556   30.77011
      O    O12249    24.14398   31.52464   43.34530
      H    H12250    24.00476   32.39692   43.71404
      H    H12251    23.26212   31.18192   43.20010
      O    O12252    30.46692   36.44222   34.65182
      H    H12253    30.90651   37.18466   34.23736
      H    H12254    30.40561   36.68488   35.57571
      O    O12255    25.94202   37.46681   45.55382
      H    H12256    25.91356   37.87110   44.68666
      H    H12257    25.77852   36.53784   45.39098
      O    O12258    35.93910   22.75690   28.99780
      H    H12259    35.62636   22.84958   29.89770
      H    H12260    36.70035   23.33500   28.94754
      O    O12261    22.45731   30.12288   33.45553
      H    H12262    22.33707   30.84909   32.84366
      H    H12263    22.14740   29.35317   32.97832
      O    O12264    37.89350   38.24952   46.85024
      H    H12265    38.36947   38.72780   47.52914
      H    H12266    38.51422   38.18126   46.12479
      O    O12267    20.09585   33.29439   39.26240
      H    H12268    20.17389   33.42927   38.31797
      H    H12269    20.71002   32.58598   39.45521
      O    O12270    21.34061   34.99441   35.67301
      H    H12271    20.93342   35.13587   34.81837
      H    H12272    22.23191   34.71043   35.47013
      O    O12273    37.29683   35.44080   44.01024
      H    H12274    37.42313   35.20199   43.09196
      H    H12275    37.33896   34.60925   44.48245
      O    O12276    31.15850   39.14360   42.57972
      H    H12277    31.67297   39.05440   43.38196
      H    H12278    30.31541   39.48957   42.87251
      O    O12279    33.13394   39.42913   32.00812
      H    H12280    32.97405   39.13943   32.90630
      H    H12281    32.96861   38.65315   31.47264
      O    O12282    25.61278   39.20899   33.78528
      H    H12283    25.43703   38.29254   33.57206
      H    H12284    24.75835   39.56772   34.02506
      O    O12285    32.83655   36.93789   30.56792
      H    H12286    32.14307   36.93562   29.90815
      H    H12287    33.57884   36.51382   30.13734
      O    O12288    32.40155   38.56416   34.64277
      H    H12289    32.85724   37.78310   34.95663
      H    H12290    32.74080   39.27484   35.18689
      O    O12291    37.14923   27.49405   44.97521
      H    H12292    36.53365   28.00201   44.44676
      H    H12293    36.82887   26.59388   44.91781
      O    O12294    20.15180   34.33581   41.80184
      H    H12295    20.31491   33.86634   40.98378
      H    H12296    20.61705   33.82816   42.46673
      O    O12297    24.92368   23.46638   36.83790
      H    H12298    24.48049   24.24734   36.50635
      H    H12299    25.48218   23.78937   37.54499
      O    O12300    29.21066   26.33324   42.44143
      H    H12301    28.74860   26.54154   43.25342
      H    H12302    28.80847   25.51917   42.13850
      O    O12303    34.21111   27.55413   43.57110
      H    H12304    33.36047   27.25471   43.89200
      H    H12305    34.05129   27.79833   42.65948
      O    O12306    31.30608   29.05431   45.67098
      H    H12307    31.63142   28.22068   45.33120
      H    H12308    32.09411   29.57716   45.81881
      O    O12309    28.03956   23.08745   31.71848
      H    H12310    27.41498   23.08344   32.44381
      H    H12311    27.95257   22.22055   31.32208
      O    O12312    26.96127   24.01112   38.69686
      H    H12313    27.25850   24.91740   38.61606
      H    H12314    27.50982   23.52299   38.08282
      O    O12315    24.71510   28.58974   34.56602
      H    H12316    24.48919   28.37346   35.47069
      H    H12317    23.93435   29.02259   34.22062
      O    O12318    31.94488   28.59608   33.16509
      H    H12319    31.34577   29.31966   32.98145
      H    H12320    32.49284   28.53376   32.38273
      O    O12321    27.15502   29.48830   45.23205
      H    H12322    27.05938   28.54777   45.08209
      H    H12323    27.99822   29.70981   44.83686
      O    O12324    30.55136   27.23243   35.19542
      H    H12325    30.94432   27.54965   34.38229
      H    H12326    30.91305   26.35362   35.30987
      O    O12327    22.28608   25.89967   43.38543
      H    H12328    21.89241   26.74719   43.59271
      H    H12329    21.59792   25.26230   43.57629
      O    O12330    28.86058   25.98316   46.45510
      H    H12331    28.17041   25.79038   47.08971
      H    H12332    29.60381   26.26663   46.98753
      O    O12333    19.58778   23.82251   37.41844
      H    H12334    19.29909   24.39280   38.13093
      H    H12335    20.33236   23.34296   37.78156
      O    O12336    19.77480   27.76452   28.62871
      H    H12337    19.69227   28.70760   28.77021
      H    H12338    19.42311   27.62201   27.74994
      O    O12339    31.13688   29.82301   39.29049
      H    H12340    30.40499   30.33169   39.63950
      H    H12341    30.73931   29.00600   38.98937
      O    O12342    27.57462   26.49843   37.69574
      H    H12343    27.57822   26.05742   36.84620
      H    H12344    28.46973   26.82016   37.80293
      O    O12345    23.42485   26.38108   36.65516
      H    H12346    23.08486   26.85860   37.41187
      H    H12347    22.66259   25.92759   36.29527
      O    O12348    27.63663   27.49963   30.68642
      H    H12349    27.75791   27.45828   31.63500
      H    H12350    27.25148   28.36205   30.53109
      O    O12351    31.59947   25.27637   38.70279
      H    H12352    31.61674   25.72724   39.54697
      H    H12353    31.35103   24.37694   38.91613
      O    O12354    26.64878   29.80975   30.08475
      H    H12355    26.08047   29.36157   29.45834
      H    H12356    27.35768   30.16903   29.55126
      O    O12357    35.02654   22.68959   44.54143
      H    H12358    35.35112   21.95856   45.06722
      H    H12359    35.06219   22.37096   43.63953
      O    O12360    21.72570   33.71095   43.96142
      H    H12361    21.34118   33.07032   44.55972
      H    H12362    22.03692   34.41456   44.53090
      O    O12363    27.87541   30.55860   39.44228
      H    H12364    28.24243   30.08446   40.18842
      H    H12365    27.68592   31.43276   39.78312
      O    O12366    20.73946   25.30297   35.57163
      H    H12367    20.45415   24.93854   36.40949
      H    H12368    20.67735   24.57102   34.95795
      O    O12369    25.66535   29.59947   41.76071
      H    H12370    25.36106   30.47867   41.98574
      H    H12371    26.62000   29.65945   41.79645
      O    O12372    24.19353   33.80557   32.35739
      H    H12373    23.41976   33.26533   32.19726
      H    H12374    24.92299   33.28623   32.01917
      O    O12375    34.95233   32.80210   38.15003
      H    H12376    35.67224   33.29763   37.75964
      H    H12377    34.75051   32.12389   37.50542
      O    O12378    30.41332   24.19590   32.29297
      H    H12379    29.59978   23.69722   32.21750
      H    H12380    30.21952   25.03572   31.87660
      O    O12381    30.33421   32.87301   44.03693
      H    H12382    30.26794   31.95258   43.78269
      H    H12383    29.70472   32.97055   44.75139
      O    O12384    33.12816   28.56786   30.58918
      H    H12385    34.01612   28.87959   30.41432
      H    H12386    33.09867   27.69509   30.19724
      O    O12387    24.23727   33.47361   35.99527
      H    H12388    24.75514   32.67043   35.94096
      H    H12389    23.78567   33.41152   36.83695
      O    O12390    29.12422   34.74023   31.26800
      H    H12391    29.46579   35.48446   30.77233
      H    H12392    28.29549   35.05335   31.63048
      O    O12393    21.72172   30.43974   42.90784
      H    H12394    21.36322   31.10513   43.49518
      H    H12395    21.42718   29.60810   43.27910
      O    O12396    24.92304   30.89817   45.79180
      H    H12397    24.62305   31.04388   44.89458
      H    H12398    25.69416   30.33870   45.69914
      O    O12399    30.26588   35.69507   43.78731
      H    H12400    30.28033   34.76316   43.56920
      H    H12401    29.55839   35.78104   44.42629
      O    O12402    35.39959   29.87905   30.05717
      H    H12403    35.31596   30.31047   29.20681
      H    H12404    36.11901   30.33888   30.48985
      O    O12405    36.47700   32.33580   43.13417
      H    H12406    35.75182   32.92868   42.93711
      H    H12407    37.00455   32.32815   42.33550
      O    O12408    36.42831   36.73327   32.78538
      H    H12409    35.78593   36.07884   33.05976
      H    H12410    36.04138   37.13878   32.00945
      O    O12411    32.00696   34.06182   36.63255
      H    H12412    32.35934   33.46463   35.97269
      H    H12413    31.12319   33.73624   36.80338
      O    O12414    28.09329   34.82159   34.03959
      H    H12415    28.78040   35.36851   34.42035
      H    H12416    27.30653   35.36566   34.07455
      O    O12417    20.23253   30.43887   29.53130
      H    H12418    21.10201   30.72135   29.81489
      H    H12419    19.74156   31.25246   29.41618
      O    O12420    27.39601   31.82619   33.65213
      H    H12421    27.85229   32.63671   33.87815
      H    H12422    27.04483   31.50850   34.48398
      O    O12423    29.69927   37.33682   40.88136
      H    H12424    30.34349   37.54276   41.55870
      H    H12425    30.06221   36.57566   40.42844
      O    O12426    30.97248   35.34006   39.59910
      H    H12427    31.61470   34.63937   39.71232
      H    H12428    31.49741   36.11990   39.41879
      O    O12429    34.81805   35.62492   29.32302
      H    H12430    34.59181   34.90796   29.91548
      H    H12431    34.42767   35.37616   28.48519
      O    O12432    32.74624   36.13955   42.80271
      H    H12433    33.08186   36.72622   43.48050
      H    H12434    31.82627   36.00882   43.03249
      O    O12435    20.59965   39.65161   30.09746
      H    H12436    20.95942   40.25054   29.44319
      H    H12437    20.45889   40.19760   30.87097
      O    O12438    34.39968   33.54211   30.98443
      H    H12439    34.11185   34.00338   31.77222
      H    H12440    35.19489   33.08189   31.25286
      O    O12441    20.58384   37.91709   44.57170
      H    H12442    20.69295   36.97657   44.43124
      H    H12443    19.93190   38.18257   43.92308
      O    O12444    28.57510   36.18868   45.97152
      H    H12445    28.25479   35.46961   46.51609
      H    H12446    27.90093   36.86419   46.04512
      O    O12447    26.61652   37.03473   30.91483
      H    H12448    26.60753   37.76770   30.29928
      H    H12449    25.69635   36.78788   31.00753
      O    O12450    22.21718   32.25622   31.65951
      H    H12451    21.60997   32.99611   31.66904
      H    H12452    22.69211   32.34615   30.83333
      O    O12453    31.79046   26.42130   41.33520
      H    H12454    32.15854   25.60082   41.66315
      H    H12455    30.93028   26.48149   41.75076
      O    O12456    35.15666   25.37699   32.14395
      H    H12457    34.52798   25.48156   31.42978
      H    H12458    34.66185   25.59667   32.93334
      O    O12459    29.60248   37.09755   29.57735
      H    H12460    29.70367   36.89395   28.64755
      H    H12461    28.70265   36.84338   29.78213
      O    O12462    27.12506   27.65559   33.55974
      H    H12463    26.41668   28.12422   34.00110
      H    H12464    27.40951   26.99779   34.19426
      O    O12465    28.75066   29.07526   41.55899
      H    H12466    29.24918   29.54984   42.22418
      H    H12467    28.89295   28.15161   41.76600
      O    O12468    31.15661   24.38065   34.99932
      H    H12469    31.03339   24.39927   34.05027
      H    H12470    32.10506   24.42855   35.11916
      O    O12471    28.24429   39.61618   34.27212
      H    H12472    28.49844   39.57832   33.35005
      H    H12473    27.29553   39.48952   34.26494
      O    O12474    25.32857   25.96409   30.93481
      H    H12475    26.17762   26.40111   30.86883
      H    H12476    24.96169   26.27612   31.76202
      O    O12477    35.95734   25.29205   42.40183
      H    H12478    35.45470   26.03259   42.74121
      H    H12479    36.77301   25.68045   42.08551
      O    O12480    34.24954   30.53537   35.84797
      H    H12481    33.30856   30.55039   36.02274
      H    H12482    34.56395   29.74897   36.29400
      O    O12483    24.22771   32.21733   29.40836
      H    H12484    24.99404   32.10547   29.97091
      H    H12485    24.30518   31.52113   28.75604
      O    O12486    22.92238   29.64984   30.09165
      H    H12487    23.00274   28.70259   30.20339
      H    H12488    23.81436   29.98053   30.19772
      O    O12489    36.25210   37.70626   37.52339
      H    H12490    36.37684   38.52937   37.99578
      H    H12491    37.11866   37.49533   37.17581
      O    O12492    23.72386   39.79938   37.19511
      H    H12493    24.46010   39.25092   37.46596
      H    H12494    24.10795   40.66498   37.05571
      O    O12495    20.60840   35.86673   33.06926
      H    H12496    19.68238   36.10885   33.05980
      H    H12497    21.07405   36.69416   32.94773
      O    O12498    22.72968   38.98398   46.38367
      H    H12499    23.53096   39.30519   46.79721
      H    H12500    22.21487   38.62354   47.10566
      O    O12501    26.83409   38.97241   29.01766
      H    H12502    27.62695   39.26129   28.56584
      H    H12503    26.31452   38.54162   28.33891
      O    O12504    31.56615   35.09197   46.33121
      H    H12505    30.95996   35.11513   45.59078
      H    H12506    31.26156   34.36027   46.86793
      O    O12507    32.99618   38.82000   44.94215
      H    H12508    33.94836   38.73580   44.89217
      H    H12509    32.84901   39.48417   45.61553
      O    O12510    35.88710   38.19942   30.44134
      H    H12511    35.60125   37.78593   29.62676
      H    H12512    35.68906   39.12819   30.32139
      O    O12513    20.44946   31.47133   45.32727
      H    H12514    20.95337   30.89206   45.89889
      H    H12515    19.71021   31.75535   45.86491
      O    O12516    27.35183   34.19275   28.88190
      H    H12517    27.24689   33.57798   29.60804
      H    H12518    27.18425   33.66934   28.09820
      O    O12519    27.50326   32.87843   44.86082
      H    H12520    26.73783   33.44693   44.77629
      H    H12521    27.68485   32.58605   43.96765
      O    O12522    30.59210   33.25475   29.48610
      H    H12523    30.04311   33.70168   30.13037
      H    H12524    31.21403   32.74968   30.00987
      O    O12525    34.64559   34.60896   45.41832
      H    H12526    35.38654   34.94654   44.91507
      H    H12527    33.88286   34.77817   44.86530
      O    O12528    22.48177   29.61429   46.22228
      H    H12529    22.52231   29.31568   47.13080
      H    H12530    23.33632   30.01505   46.06303
      O    O12531    26.25961   32.21384   31.38263
      H    H12532    26.68125   32.04783   32.22577
      H    H12533    26.38470   31.40387   30.88814
      O    O12534    24.42235   28.19350   44.18973
      H    H12535    23.89200   27.70259   43.56206
      H    H12536    25.09116   28.62192   43.65552
      O    O12537    28.77238   31.23760   28.63034
      H    H12538    29.29294   30.52251   28.26445
      H    H12539    29.41922   31.87619   28.93039
      O    O12540    33.32016   32.66044   43.95385
      H    H12541    33.73426   32.81495   44.80289
      H    H12542    32.38526   32.78597   44.11642
      O    O12543    33.79238   30.00006   45.95776
      H    H12544    34.37445   29.24529   45.86981
      H    H12545    33.96855   30.53080   45.18091
      O    O12546    24.90958   25.15974   44.26946
      H    H12547    24.81527   24.54181   43.54454
      H    H12548    24.32932   25.88636   44.04245
      O    O12549    27.67573   23.71706   41.30219
      H    H12550    27.22746   23.73949   40.45675
      H    H12551    27.04225   23.31896   41.89922
      O    O12552    28.08168   32.61249   41.92344
      H    H12553    28.50049   33.45577   41.75106
      H    H12554    27.16255   32.74970   41.69412
      O    O12555    30.41807   30.34411   43.30722
      H    H12556    30.53769   29.74822   44.04671
      H    H12557    31.27747   30.38108   42.88735
      O    O12558    32.75686   30.89783   41.88347
      H    H12559    32.23038   31.42209   41.27999
      H    H12560    33.10000   31.53057   42.51445
      O    O12561    25.15550   28.28717   28.32844
      H    H12562    24.95441   27.42390   28.68978
      H    H12563    24.98471   28.20050   27.39060
      O    O12564    25.93242   38.91779   43.03921
      H    H12565    25.39453   39.64240   42.72008
      H    H12566    26.18582   38.44083   42.24895
      O    O12567    27.18495   26.88625   44.56480
      H    H12568    27.77492   26.57783   45.25259
      H    H12569    26.36697   26.41422   44.72079
      O    O12570    32.00429   26.50283   44.79811
      H    H12571    31.31584   25.84098   44.73311
      H    H12572    32.72489   26.05665   45.24295
      O    O12573    32.63433   23.09799   30.85713
      H    H12574    32.91456   22.25478   31.21307
      H    H12575    31.86091   23.33030   31.37101
      O    O12576    23.95378   25.38723   28.31623
      H    H12577    24.25637   25.39397   27.40815
      H    H12578    24.69324   25.03701   28.81300
      O    O12579    28.78865   40.15291   43.29788
      H    H12580    28.71452   41.05643   43.60511
      H    H12581    27.88653   39.83410   43.27008
      O    O12582    27.17227   24.33069   29.30185
      H    H12583    26.82447   23.65309   28.72210
      H    H12584    27.37355   23.86964   30.11619
      O    O12585    29.33718   39.31877   30.92051
      H    H12586    30.23226   39.65726   30.94239
      H    H12587    29.36894   38.59671   30.29294
      O    O12588    22.97679   34.69147   29.14921
      H    H12589    23.41428   35.23444   29.80497
      H    H12590    23.46157   33.86617   29.15885
      O    O12591    20.19137   37.48037   36.60124
      H    H12592    20.52168   36.61248   36.36910
      H    H12593    20.62047   37.68623   37.43173
      O    O12594    24.78757   35.81127   34.26144
      H    H12595    24.48712   35.68777   35.16183
      H    H12596    24.68132   34.95213   33.85301
      O    O12597    20.68040   38.34743   39.33940
      H    H12598    20.24349   38.52751   40.17182
      H    H12599    21.24816   39.10489   39.19757
      O    O12600    36.31661   37.84913   43.62713
      H    H12601    35.71681   37.90839   42.88352
      H    H12602    36.44600   36.90963   43.75682
      O    O12603    37.55676   35.59091   28.96410
      H    H12604    36.72605   35.65858   29.43483
      H    H12605    37.73394   36.48133   28.66079
      O    O12606    37.01240   32.33566   31.46752
      H    H12607    37.77430   32.90533   31.57349
      H    H12608    37.02784   31.76838   32.23835
      O    O12609    20.51284   30.85946   35.69829
      H    H12610    19.85772   30.59062   35.05426
      H    H12611    21.35063   30.74990   35.24849
      O    O12612    38.01840   33.19067   36.31172
      H    H12613    38.38928   32.40740   35.90531
      H    H12614    38.65859   33.87958   36.13345
      O    O12615    35.00178   34.57433   41.72475
      H    H12616    34.18776   35.00405   41.98733
      H    H12617    35.40920   35.18617   41.11165
      O    O12618    37.06432   32.62910   28.62478
      H    H12619    37.33921   33.53699   28.49670
      H    H12620    36.87540   32.56535   29.56097
      O    O12621    33.46188   25.65358   29.92014
      H    H12622    33.88037   25.46668   29.07980
      H    H12623    33.15549   24.80149   30.23043
      O    O12624    36.96086   30.56600   33.61772
      H    H12625    36.58522   29.79879   33.18585
      H    H12626    36.23117   30.94827   34.10521
      O    O12627    21.55043   31.24471   40.23862
      H    H12628    21.91774   31.15745   41.11823
      H    H12629    20.98151   30.48137   40.13931
      O    O12630    36.35082   29.71315   43.25167
      H    H12631    36.11943   29.48443   42.35147
      H    H12632    36.61127   30.63311   43.20616
      O    O12633    21.10203   28.15562   44.14447
      H    H12634    20.20764   28.12230   44.48384
      H    H12635    21.64179   28.35430   44.90959
      O    O12636    34.78962   24.93879   46.02964
      H    H12637    35.66664   24.94713   46.41304
      H    H12638    34.80171   24.20188   45.41888
      O    O12639    19.72665   28.06935   31.64082
      H    H12640    18.82305   28.33237   31.46599
      H    H12641    20.21071   28.34047   30.86082
      O    O12642    36.23595   28.79175   36.91844
      H    H12643    36.75970   28.29801   36.28746
      H    H12644    36.82189   28.92678   37.66320
      O    O12645    36.41492   28.87573   40.44040
      H    H12646    35.46519   28.84209   40.55490
      H    H12647    36.59622   29.78575   40.20537
      O    O12648    22.26937   27.12590   29.55026
      H    H12649    22.97854   26.70422   29.06499
      H    H12650    21.55336   27.19343   28.91860
      O    O12651    35.72595   28.04908   32.85768
      H    H12652    36.22186   27.81617   33.64257
      H    H12653    35.52756   27.21027   32.44145
      O    O12654    21.60600   22.43045   38.49279
      H    H12655    22.25362   21.88019   38.05230
      H    H12656    22.02619   22.68477   39.31437
      O    O12657    37.15466   26.68518   35.39145
      H    H12658    37.04459   26.53078   36.32968
      H    H12659    37.91542   26.15727   35.14899
      O    O12660    35.50124   22.62459   41.84975
      H    H12661    36.13846   23.23800   42.21567
      H    H12662    35.64873   22.66066   40.90467
      O    O12663    38.04369   24.51597   28.63207
      H    H12664    38.96862   24.38409   28.42389
      H    H12665    38.02127   24.59525   29.58571
      O    O12666    38.11754   25.28704   31.25774
      H    H12667    37.32269   25.22155   31.78703
      H    H12668    38.32187   26.22210   31.24627
      O    O12669    35.05938   39.32619   35.25158
      H    H12670    35.65529   39.00465   34.57502
      H    H12671    35.31720   38.85337   36.04290
      O    O12672    22.96564   35.75798   45.40064
      H    H12673    22.92260   35.38727   46.28208
      H    H12674    23.09674   36.69574   45.54082
      O    O12675    26.66624   37.31394   41.00161
      H    H12676    26.42538   37.58140   40.11466
      H    H12677    27.60651   37.48451   41.05670
      O    O12678    28.87168   23.77721   44.75726
      H    H12679    28.81057   24.36939   45.50680
      H    H12680    29.81172   23.66981   44.61229
      O    O12681    31.50914   23.43422   44.39649
      H    H12682    32.12318   23.75214   43.73460
      H    H12683    32.05410   22.94907   45.01608
      O    O12684    37.92666   39.33338   41.80267
      H    H12685    37.43249   39.73027   41.08539
      H    H12686    37.31799   38.70830   42.19640
      O    O12687    22.80444   38.70421   42.52042
      H    H12688    22.21047   38.57268   43.25942
      H    H12689    22.79683   37.86802   42.05463
      O    O12690    32.24994   21.99743   40.72342
      H    H12691    31.37593   22.33094   40.52071
      H    H12692    32.14102   21.52475   41.54861
      O    O12693    33.15714   24.20452   42.10759
      H    H12694    32.82848   23.38969   41.72776
      H    H12695    34.10537   24.16150   41.98416
      O    O12696    35.61060   39.97572   39.08135
      H    H12697    35.15090   40.72730   38.70715
      H    H12698    34.98185   39.25637   39.02283
      O    O12699    22.43567   36.07004   41.47122
      H    H12700    21.70907   35.45057   41.40382
      H    H12701    22.49658   36.46411   40.60103
      O    O12702    26.04018   38.28454   38.25616
      H    H12703    26.55668   37.67328   37.73099
      H    H12704    26.68991   38.78742   38.74726
      O    O12705    28.77973   39.17539   39.08306
      H    H12706    29.06751   38.92082   38.20636
      H    H12707    29.29205   38.62313   39.67362
      O    O12708    29.99743   22.91441   39.66271
      H    H12709    29.21461   23.38896   39.94239
      H    H12710    29.70372   22.00990   39.55403
      O    O12711    34.54953   23.61672   37.70762
      H    H12712    34.99034   23.56123   36.85978
      H    H12713    34.28029   24.53252   37.77864
      O    O12714    36.41339   23.24825   35.71850
      H    H12715    36.35223   22.30437   35.57160
      H    H12716    37.19259   23.35626   36.26385
      O    O12717    20.71867   39.38748   34.68090
      H    H12718    20.55087   38.75455   35.37909
      H    H12719    19.85212   39.59342   34.33032
      O    O12720    27.88285   25.33309   35.17431
      H    H12721    27.07030   24.95878   34.83390
      H    H12722    28.38701   24.57760   35.47643
      O    O12723    32.38535   21.99733   36.41262
      H    H12724    32.98828   22.56935   36.88747
      H    H12725    31.64465   22.56128   36.19001
      O    O12726    35.52881   22.39949   31.68665
      H    H12727    35.72387   23.29783   31.95339
      H    H12728    34.74179   22.16820   32.17994
      O    O12729    22.32494   38.08081   32.12591
      H    H12730    21.79970   38.46161   31.42211
      H    H12731    22.24939   38.70588   32.84688
      O    O12732    23.71398   23.74557   30.72428
      H    H12733    24.24326   22.95855   30.59507
      H    H12734    24.34681   24.42469   30.95783
      O    O12735    25.90777   23.48308   33.77882
      H    H12736    25.27804   22.78181   33.94583
      H    H12737    25.36828   24.24349   33.56213
      O    O12738    28.84696   40.09700   46.44988
      H    H12739    29.77369   39.86143   46.49348
      H    H12740    28.83200   40.92420   45.96848
      O    O12741    37.08147   39.63956   33.44730
      H    H12742    37.25669   38.95333   32.80340
      H    H12743    36.38362   40.16427   33.05497
      O    O12744    26.03332   22.76148   46.21407
      H    H12745    25.75175   23.26484   45.45015
      H    H12746    26.41529   21.96365   45.84828
      O    O12747    24.92423   40.02904   31.00084
      H    H12748    25.65611   39.74497   30.45322
      H    H12749    25.18360   39.79037   31.89077
      O    O12750    24.08571   36.14552   31.00547
      H    H12751    23.45660   36.61403   31.55405
      H    H12752    24.20049   35.30044   31.44009
      O    O12753    32.63487   22.17684   46.79211
      H    H12754    32.52141   22.49630   47.68727
      H    H12755    33.45184   22.57809   46.49584
      O    O12756    35.41472   39.32399   46.27398
      H    H12757    36.20725   38.82891   46.06658
      H    H12758    35.70803   40.00300   46.88154
      O    O12759    -6.00802   -7.35262   54.70429
      H    H12760    -6.08861   -8.26716   54.43346
      H    H12761    -6.42157   -6.85591   53.99826
      O    O12762    -7.87621   -5.57471   56.58521
      H    H12763    -8.65200   -6.05467   56.87507
      H    H12764    -7.22492   -6.25415   56.41083
      O    O12765    -3.85547   -1.16870   55.36513
      H    H12766    -4.31732   -1.93997   55.69384
      H    H12767    -3.04291   -1.14209   55.87037
      O    O12768    -7.62914    1.11711   54.98553
      H    H12769    -8.24799    1.57286   54.41497
      H    H12770    -6.77396    1.27225   54.58450
      O    O12771    -8.43531   -2.89900   56.59223
      H    H12772    -8.50449   -3.84000   56.43114
      H    H12773    -7.67333   -2.80885   57.16449
      O    O12774    -6.76280   -3.99897   52.37872
      H    H12775    -7.38108   -3.53403   51.81499
      H    H12776    -6.25048   -3.30622   52.79567
      O    O12777    -1.76996   -1.03936   58.78746
      H    H12778    -2.45361   -0.36945   58.77913
      H    H12779    -1.23053   -0.84130   58.02195
      O    O12780    -4.23408    0.80505   57.50198
      H    H12781    -4.22137    0.40128   56.63420
      H    H12782    -4.78656    1.57978   57.39812
      O    O12783    -2.93954   -2.47333   52.59099
      H    H12784    -3.04991   -3.41589   52.71594
      H    H12785    -2.94272   -2.11176   53.47727
      O    O12786    -4.83554   -4.29197   58.83024
      H    H12787    -4.41866   -4.50595   57.99558
      H    H12788    -4.11156   -4.03469   59.40110
      O    O12789    -7.39751   -6.84680   51.94724
      H    H12790    -8.32459   -6.91306   52.17609
      H    H12791    -7.24503   -5.90878   51.83277
      O    O12792    -0.88933   -5.89324   58.92186
      H    H12793    -1.71747   -5.82393   58.44688
      H    H12794    -0.29428   -5.30781   58.45345
      O    O12795    -3.36779   -5.28477   52.45077
      H    H12796    -3.98654   -5.62281   51.80340
      H    H12797    -3.38534   -5.92879   53.15869
      O    O12798    -3.92513   -9.10631   59.86735
      H    H12799    -4.33801   -8.28094   60.12135
      H    H12800    -4.65753   -9.69181   59.67499
      O    O12801    -3.23512    0.93962   60.55545
      H    H12802    -3.71206    1.74684   60.36271
      H    H12803    -3.91894    0.28745   60.70807
      O    O12804    -5.19132   -6.04608   49.45804
      H    H12805    -4.75199   -6.88384   49.31183
      H    H12806    -4.47847   -5.41314   49.54446
      O    O12807    -7.08178   -1.10648   53.42617
      H    H12808    -6.64219   -0.36404   53.01171
      H    H12809    -7.14309   -0.86382   54.35006
      O    O12810     0.34480    0.70082   65.62459
      H    H12811     0.82077    1.17910   66.30349
      H    H12812     0.96552    0.63256   64.89914
      O    O12813    -0.25187   -2.10790   62.78459
      H    H12814    -0.12557   -2.34671   61.86631
      H    H12815    -0.20974   -2.93945   63.25680
      O    O12816    -6.39020    1.59490   61.35407
      H    H12817    -5.87573    1.50570   62.15631
      H    H12818    -7.23329    1.94087   61.64686
      O    O12819    -4.41476    1.88043   50.78247
      H    H12820    -4.57465    1.59073   51.68065
      H    H12821    -4.58009    1.10445   50.24699
      O    O12822    -4.71215   -0.61081   49.34227
      H    H12823    -5.40563   -0.61308   48.68250
      H    H12824    -3.96986   -1.03488   48.91169
      O    O12825    -5.14715    1.01546   53.41712
      H    H12826    -4.69146    0.23440   53.73098
      H    H12827    -4.80790    1.72614   53.96124
      O    O12828    -6.24262   -8.49439   64.44533
      H    H12829    -5.91728   -9.32802   64.10555
      H    H12830    -5.45459   -7.97154   64.59316
      O    O12831    -5.60382   -8.95262   51.93944
      H    H12832    -6.20293   -8.22904   51.75580
      H    H12833    -5.05586   -9.01494   51.15708
      O    O12834    -6.41182   -7.72569   58.06484
      H    H12835    -7.14371   -7.21701   58.41385
      H    H12836    -6.80939   -8.54270   57.76372
      O    O12837    -2.59637   -4.74660   56.92438
      H    H12838    -1.87646   -4.25107   56.53399
      H    H12839    -2.79819   -5.42481   56.27977
      O    O12840    -7.21449   -4.67569   62.81128
      H    H12841    -7.28076   -5.59612   62.55704
      H    H12842    -7.84398   -4.57815   63.52574
      O    O12843    -4.42054   -8.98084   49.36353
      H    H12844    -3.53258   -8.66911   49.18867
      H    H12845    -4.45003   -9.85361   48.97159
      O    O12846    -8.42448   -2.80847   50.04235
      H    H12847    -8.08291   -2.06424   49.54668
      H    H12848    -9.25321   -2.49535   50.40483
      O    O12849    -7.28282   -1.85363   62.56166
      H    H12850    -7.26837   -2.78554   62.34355
      H    H12851    -7.99031   -1.76766   63.20064
      O    O12852    -2.14911   -7.66965   48.83152
      H    H12853    -2.23274   -7.23823   47.98116
      H    H12854    -1.42969   -7.20982   49.26420
      O    O12855    -1.07170   -5.21290   61.90852
      H    H12856    -1.79688   -4.62002   61.71146
      H    H12857    -0.54415   -5.22055   61.10985
      O    O12858    -1.12039   -0.81543   51.55973
      H    H12859    -1.76277   -1.46986   51.83411
      H    H12860    -1.50732   -0.40992   50.78380
      O    O12861    -5.54174   -3.48688   55.40690
      H    H12862    -5.18936   -4.08407   54.74704
      H    H12863    -6.42551   -3.81246   55.57773
      O    O12864    -7.84943   -0.21188   59.65571
      H    H12865    -7.20521   -0.00594   60.33305
      H    H12866    -7.48649   -0.97304   59.20279
      O    O12867    -6.57622   -2.20864   58.37345
      H    H12868    -5.93400   -2.90933   58.48667
      H    H12869    -6.05129   -1.42880   58.19314
      O    O12870    -2.73065   -1.92378   48.09737
      H    H12871    -2.95689   -2.64074   48.68983
      H    H12872    -3.12103   -2.17254   47.25954
      O    O12873    -4.80246   -1.40915   61.57706
      H    H12874    -4.46684   -0.82248   62.25485
      H    H12875    -5.72243   -1.53988   61.80684
      O    O12876    -3.14902   -4.00659   49.75878
      H    H12877    -3.43685   -3.54532   50.54657
      H    H12878    -2.35381   -4.46681   50.02721
      O    O12879    -7.94622   -0.45115   48.35170
      H    H12880    -7.84503   -0.65475   47.42190
      H    H12881    -8.84605   -0.70532   48.55648
      O    O12882    -8.79804   -8.47344   60.33334
      H    H12883    -8.29952   -7.99886   60.99853
      H    H12884    -8.65575   -9.39709   60.54035
      O    O12885    -3.29916   -7.01333   54.62232
      H    H12886    -4.24014   -6.99831   54.79709
      H    H12887    -2.98475   -7.79973   55.06835
      O    O12888    -1.29660    0.15756   56.29774
      H    H12889    -1.17186    0.98067   56.77013
      H    H12890    -0.43004   -0.05337   55.95016
      O    O12891    -5.98255   -2.45673   65.10556
      H    H12892    -6.58874   -2.43357   64.36513
      H    H12893    -6.28714   -3.18843   65.64228
      O    O12894    -4.55252    1.27130   63.71650
      H    H12895    -3.60034    1.18710   63.66652
      H    H12896    -4.69969    1.93547   64.38988
      O    O12897    -1.66160    0.65072   49.21569
      H    H12898    -1.94745    0.23723   48.40111
      H    H12899    -1.85964    1.57949   49.09574
      O    O12900    -6.95660   -4.29395   48.26045
      H    H12901    -7.50559   -3.84702   48.90472
      H    H12902    -6.33467   -4.79902   48.78422
      O    O12903    -2.90311   -2.93974   64.19267
      H    H12904    -2.16216   -2.60216   63.68942
      H    H12905    -3.66584   -2.77053   63.63965
      O    O12906    -8.77632   -6.31110   47.40469
      H    H12907    -8.25576   -7.02619   47.03880
      H    H12908    -8.12948   -5.67251   47.70474
      O    O12909    -4.22854   -4.88826   62.72820
      H    H12910    -3.81444   -4.73375   63.57724
      H    H12911    -5.16344   -4.76273   62.89077
      O    O12912    -3.75632   -7.54864   64.73211
      H    H12913    -3.17425   -8.30341   64.64416
      H    H12914    -3.58015   -7.01790   63.95526
      O    O12915    -7.13063   -7.20459   62.08157
      H    H12916    -7.01101   -7.80048   62.82106
      H    H12917    -6.27123   -7.16762   61.66170
      O    O12918    -4.79184   -6.65087   60.65782
      H    H12919    -5.31832   -6.12661   60.05434
      H    H12920    -4.44870   -6.01813   61.28880
      O    O12921    -8.76005    2.60421   62.07223
      H    H12922    -8.83418    3.50773   62.37946
      H    H12923    -9.66217    2.28540   62.04443
      O    O12924    -8.21152    1.77007   49.69486
      H    H12925    -7.31644    2.10856   49.71674
      H    H12926    -8.17976    1.04801   49.06729
      O    O12927    -1.23209    0.30043   62.40148
      H    H12928    -1.83189    0.35969   61.65787
      H    H12929    -1.10270   -0.63907   62.53117
      O    O12930     0.00806   -1.95779   47.73845
      H    H12931    -0.82265   -1.89012   48.20918
      H    H12932     0.18524   -1.06737   47.43514
      O    O12933    -0.53630   -5.21304   50.24187
      H    H12934     0.22560   -4.64337   50.34784
      H    H12935    -0.52086   -5.78032   51.01270
      O    O12936     0.46970   -4.35803   55.08607
      H    H12937     0.84058   -5.14130   54.67966
      H    H12938     1.10989   -3.66912   54.90780
      O    O12939    -2.54692   -2.97437   60.49910
      H    H12940    -3.36094   -2.54465   60.76168
      H    H12941    -2.13950   -2.36253   59.88600
      O    O12942    -0.48438   -4.91960   47.39913
      H    H12943    -0.20949   -4.01171   47.27105
      H    H12944    -0.67330   -4.98335   48.33532
      O    O12945    -0.58784   -6.98270   52.39207
      H    H12946    -0.96348   -7.74991   51.96020
      H    H12947    -1.31753   -6.60043   52.87956
      O    O12948    -1.19788   -7.83555   62.02602
      H    H12949    -1.42927   -8.06427   61.12582
      H    H12950    -0.93743   -6.91559   61.98051
      O    O12951    -1.31275   -8.75695   55.69279
      H    H12952    -0.78900   -9.25069   55.06181
      H    H12953    -0.72681   -8.62192   56.43755
      O    O12954    -1.13378   -8.67297   59.21475
      H    H12955    -2.08351   -8.70661   59.32925
      H    H12956    -0.95248   -7.76295   58.97972
      O    O12957    -2.48932    1.77749   54.02593
      H    H12958    -1.89341    1.45595   53.34937
      H    H12959    -2.23150    1.30467   54.81725
      O    O12960     0.37796    1.78468   60.57702
      H    H12961    -0.11621    2.18157   59.85974
      H    H12962    -0.23071    1.15960   60.97075
      O    O12963    -1.93810    2.42702   57.85570
      H    H12964    -2.39780    3.17860   57.48150
      H    H12965    -2.56685    1.70767   57.79718
      O    O12966    -8.76897    1.62669   57.85741
      H    H12967    -8.48119    1.37212   56.98071
      H    H12968    -8.25665    1.07443   58.44797
      O    O12969    -8.70174    2.54830   65.22423
      H    H12970    -7.77501    2.31273   65.26783
      H    H12971    -8.71670    3.37550   64.74283
      O    O12972    -0.46723    2.09086   52.22165
      H    H12973    -0.29201    1.40463   51.57775
      H    H12974    -1.16508    2.61557   51.82932
      O    O12975    -2.13398    1.77529   65.04833
      H    H12976    -1.34145    1.28021   64.84093
      H    H12977    -1.84067    2.45430   65.65589
      O    O12978    12.76633   -7.35262   54.70429
      H    H12979    12.68574   -8.26716   54.43346
      H    H12980    12.35278   -6.85591   53.99826
      O    O12981    10.89814   -5.57471   56.58521
      H    H12982    10.12235   -6.05467   56.87507
      H    H12983    11.54943   -6.25415   56.41083
      O    O12984     4.91472   -5.26273   57.46279
      H    H12985     4.08321   -5.51786   57.86244
      H    H12986     5.52282   -5.19166   58.19858
      O    O12987    14.91888   -1.16870   55.36513
      H    H12988    14.45703   -1.93997   55.69384
      H    H12989    15.73144   -1.14209   55.87037
      O    O12990     4.89485   -1.22872   57.65859
      H    H12991     5.19765   -2.11895   57.47961
      H    H12992     5.63921   -0.67170   57.43082
      O    O12993     1.28722   -7.70198   57.13100
      H    H12994     1.85883   -8.46976   57.13136
      H    H12995     1.28737   -7.40310   56.22166
      O    O12996    11.14521    1.11711   54.98553
      H    H12997    10.52636    1.57286   54.41497
      H    H12998    12.00039    1.27225   54.58450
      O    O12999    10.33904   -2.89900   56.59223
      H    H13000    10.26986   -3.84000   56.43114
      H    H13001    11.10102   -2.80885   57.16449
      O    O13002     7.34083   -8.75076   56.61339
      H    H13003     7.84865   -8.25266   57.25389
      H    H13004     7.87215   -9.52724   56.43732
      O    O13005    12.01155   -3.99897   52.37872
      H    H13006    11.39327   -3.53403   51.81499
      H    H13007    12.52387   -3.30622   52.79567
      O    O13008     6.87472   -4.47138   59.05708
      H    H13009     6.54166   -3.84449   59.69918
      H    H13010     7.05139   -3.94520   58.27724
      O    O13011     6.08663   -2.50330   60.87200
      H    H13012     6.70403   -1.82820   60.59044
      H    H13013     5.22594   -2.09451   60.78075
      O    O13014     1.37987   -3.31332   49.75268
      H    H13015     1.00266   -2.82461   49.02117
      H    H13016     1.63717   -2.64079   50.38333
      O    O13017    17.00439   -1.03936   58.78746
      H    H13018    16.32074   -0.36945   58.77913
      H    H13019    17.54382   -0.84130   58.02195
      O    O13020    14.54027    0.80505   57.50198
      H    H13021    14.55298    0.40128   56.63420
      H    H13022    13.98779    1.57978   57.39812
      O    O13023    15.83481   -2.47333   52.59099
      H    H13024    15.72444   -3.41589   52.71594
      H    H13025    15.83163   -2.11176   53.47727
      O    O13026    13.93881   -4.29197   58.83024
      H    H13027    14.35569   -4.50595   57.99558
      H    H13028    14.66279   -4.03469   59.40110
      O    O13029    11.37684   -6.84680   51.94724
      H    H13030    10.44976   -6.91306   52.17609
      H    H13031    11.52932   -5.90878   51.83277
      O    O13032    17.88502   -5.89324   58.92186
      H    H13033    17.05688   -5.82393   58.44688
      H    H13034    18.48007   -5.30781   58.45345
      O    O13035    15.40656   -5.28477   52.45077
      H    H13036    14.78781   -5.62281   51.80340
      H    H13037    15.38901   -5.92879   53.15869
      O    O13038    14.84922   -9.10631   59.86735
      H    H13039    14.43634   -8.28094   60.12135
      H    H13040    14.11682   -9.69181   59.67499
      O    O13041     6.98250   -6.32032   54.72922
      H    H13042     6.57820   -7.03260   54.23381
      H    H13043     7.06881   -6.66500   55.61802
      O    O13044     7.45067   -2.63357   56.89314
      H    H13045     7.15350   -3.23902   56.21392
      H    H13046     8.40065   -2.59583   56.78207
      O    O13047     5.69536   -9.54600   58.50912
      H    H13048     6.24682   -9.43647   57.73445
      H    H13049     6.20971   -9.17224   59.22464
      O    O13050    15.53923    0.93962   60.55545
      H    H13051    15.06229    1.74684   60.36271
      H    H13052    14.85541    0.28745   60.70807
      O    O13053     6.54251   -2.89540   63.54392
      H    H13054     5.64537   -2.67140   63.79126
      H    H13055     6.56780   -2.77190   62.59506
      O    O13056    13.58303   -6.04608   49.45804
      H    H13057    14.02236   -6.88384   49.31183
      H    H13058    14.29588   -5.41314   49.54446
      O    O13059     5.36963   -6.02406   62.11965
      H    H13060     5.23041   -5.15178   62.48839
      H    H13061     4.48777   -6.36678   61.97445
      O    O13062    11.69257   -1.10648   53.42617
      H    H13063    12.13216   -0.36404   53.01171
      H    H13064    11.63126   -0.86382   54.35006
      O    O13065     7.16767   -0.08189   64.32817
      H    H13066     7.13921    0.32240   63.46101
      H    H13067     7.00417   -1.01086   64.16533
      O    O13068     3.68296   -7.42582   52.22988
      H    H13069     3.56272   -6.69961   51.61801
      H    H13070     3.37305   -8.19553   51.75267
      O    O13071    19.11915    0.70082   65.62459
      H    H13072    19.59512    1.17910   66.30349
      H    H13073    19.73987    0.63256   64.89914
      O    O13074     1.32150   -4.25431   58.03675
      H    H13075     1.39954   -4.11943   57.09232
      H    H13076     1.93567   -4.96272   58.22956
      O    O13077     2.56626   -2.55429   54.44736
      H    H13078     2.15907   -2.41283   53.59272
      H    H13079     3.45756   -2.83827   54.24448
      O    O13080    18.52248   -2.10790   62.78459
      H    H13081    18.64878   -2.34671   61.86631
      H    H13082    18.56461   -2.93945   63.25680
      O    O13083    12.38415    1.59490   61.35407
      H    H13084    12.89862    1.50570   62.15631
      H    H13085    11.54106    1.94087   61.64686
      O    O13086    14.35959    1.88043   50.78247
      H    H13087    14.19970    1.59073   51.68065
      H    H13088    14.19426    1.10445   50.24699
      O    O13089     6.83843    1.66029   52.55963
      H    H13090     6.66268    0.74384   52.34641
      H    H13091     5.98400    2.01902   52.79941
      O    O13092    14.06220   -0.61081   49.34227
      H    H13093    13.36872   -0.61308   48.68250
      H    H13094    14.80449   -1.03488   48.91169
      O    O13095    13.62720    1.01546   53.41712
      H    H13096    14.08289    0.23440   53.73098
      H    H13097    13.96645    1.72614   53.96124
      O    O13098     1.37745   -3.21289   60.57619
      H    H13099     1.54056   -3.68236   59.75813
      H    H13100     1.84270   -3.72054   61.24108
      O    O13101    12.53173   -8.49439   64.44533
      H    H13102    12.85707   -9.32802   64.10555
      H    H13103    13.31976   -7.97154   64.59316
      O    O13104     5.94075   -8.95896   53.34037
      H    H13105     5.71484   -9.17524   54.24504
      H    H13106     5.16000   -8.52611   52.99497
      O    O13107    13.17053   -8.95262   51.93944
      H    H13108    12.57142   -8.22904   51.75580
      H    H13109    13.71849   -9.01494   51.15708
      O    O13110     8.38067   -8.06040   64.00640
      H    H13111     8.28503   -9.00093   63.85644
      H    H13112     9.22387   -7.83889   63.61121
      O    O13113    12.36253   -7.72569   58.06484
      H    H13114    11.63064   -7.21701   58.41385
      H    H13115    11.96496   -8.54270   57.76372
      O    O13116     7.87443   -7.73895   48.85910
      H    H13117     7.30612   -8.18713   48.23269
      H    H13118     8.58333   -7.37967   48.32561
      O    O13119     2.95135   -3.83775   62.73577
      H    H13120     2.56683   -4.47838   63.33407
      H    H13121     3.26257   -3.13414   63.30525
      O    O13122     9.10106   -6.99010   58.21663
      H    H13123     9.46808   -7.46424   58.96277
      H    H13124     8.91157   -6.11594   58.55747
      O    O13125     6.89100   -7.94923   60.53506
      H    H13126     6.58671   -7.07003   60.76009
      H    H13127     7.84565   -7.88925   60.57080
      O    O13128     5.41918   -3.74313   51.13174
      H    H13129     4.64541   -4.28337   50.97161
      H    H13130     6.14864   -4.26247   50.79352
      O    O13131    16.17798   -4.74660   56.92438
      H    H13132    16.89789   -4.25107   56.53399
      H    H13133    15.97616   -5.42481   56.27977
      O    O13134    11.55986   -4.67569   62.81128
      H    H13135    11.49359   -5.59612   62.55704
      H    H13136    10.93037   -4.57815   63.52574
      O    O13137    14.35381   -8.98084   49.36353
      H    H13138    15.24177   -8.66911   49.18867
      H    H13139    14.32432   -9.85361   48.97159
      O    O13140     5.46292   -4.07509   54.76962
      H    H13141     5.98079   -4.87827   54.71531
      H    H13142     5.01132   -4.13718   55.61130
      O    O13143    10.34987   -2.80847   50.04235
      H    H13144    10.69144   -2.06424   49.54668
      H    H13145     9.52114   -2.49535   50.40483
      O    O13146     2.94737   -7.10896   61.68219
      H    H13147     2.58887   -6.44357   62.26953
      H    H13148     2.65283   -7.94060   62.05345
      O    O13149     6.14869   -6.65053   64.56615
      H    H13150     5.84870   -6.50482   63.66893
      H    H13151     6.91981   -7.21000   64.47349
      O    O13152    11.49153   -1.85363   62.56166
      H    H13153    11.50598   -2.78554   62.34355
      H    H13154    10.78404   -1.76766   63.20064
      O    O13155    16.62524   -7.66965   48.83152
      H    H13156    16.54161   -7.23823   47.98116
      H    H13157    17.34466   -7.20982   49.26420
      O    O13158    17.70265   -5.21290   61.90852
      H    H13159    16.97747   -4.62002   61.71146
      H    H13160    18.23020   -5.22055   61.10985
      O    O13161    17.65396   -0.81543   51.55973
      H    H13162    17.01158   -1.46986   51.83411
      H    H13163    17.26703   -0.40992   50.78380
      O    O13164    13.23261   -3.48688   55.40690
      H    H13165    13.58499   -4.08407   54.74704
      H    H13166    12.34884   -3.81246   55.57773
      O    O13167     9.31894   -2.72711   52.81394
      H    H13168    10.00605   -2.18019   53.19470
      H    H13169     8.53218   -2.18304   52.84890
      O    O13170     1.45818   -7.10983   48.30565
      H    H13171     2.32766   -6.82735   48.58924
      H    H13172     0.96721   -6.29624   48.19053
      O    O13173     8.62166   -5.72251   52.42648
      H    H13174     9.07794   -4.91199   52.65250
      H    H13175     8.27048   -6.04020   53.25833
      O    O13176    10.92492   -0.21188   59.65571
      H    H13177    11.56914   -0.00594   60.33305
      H    H13178    11.28786   -0.97304   59.20279
      O    O13179    12.19813   -2.20864   58.37345
      H    H13180    12.84035   -2.90933   58.48667
      H    H13181    12.72306   -1.42880   58.19314
      O    O13182    16.04370   -1.92378   48.09737
      H    H13183    15.81746   -2.64074   48.68983
      H    H13184    15.65332   -2.17254   47.25954
      O    O13185    13.97189   -1.40915   61.57706
      H    H13186    14.30751   -0.82248   62.25485
      H    H13187    13.05192   -1.53988   61.80684
      O    O13188     1.82530    2.10291   48.87181
      H    H13189     2.18507    2.70184   48.21754
      H    H13190     1.68454    2.64890   49.64532
      O    O13191    15.62533   -4.00659   49.75878
      H    H13192    15.33750   -3.54532   50.54657
      H    H13193    16.42054   -4.46681   50.02721
      O    O13194     1.80949    0.36839   63.34605
      H    H13195     1.91860   -0.57213   63.20559
      H    H13196     1.15755    0.63387   62.69743
      O    O13197     9.80075   -1.36002   64.74587
      H    H13198     9.48044   -2.07909   65.29044
      H    H13199     9.12658   -0.68451   64.81947
      O    O13200     7.84217   -0.51397   49.68918
      H    H13201     7.83318    0.21900   49.07363
      H    H13202     6.92200   -0.76082   49.78188
      O    O13203     3.44283   -5.29248   50.43386
      H    H13204     2.83562   -4.55259   50.44339
      H    H13205     3.91776   -5.20255   49.60768
      O    O13206    10.82813   -0.45115   48.35170
      H    H13207    10.92932   -0.65475   47.42190
      H    H13208     9.92830   -0.70532   48.55648
      O    O13209     9.97631   -8.47344   60.33334
      H    H13210    10.47483   -7.99886   60.99853
      H    H13211    10.11860   -9.39709   60.54035
      O    O13212     9.46994    2.06748   53.04647
      H    H13213     9.72409    2.02962   52.12440
      H    H13214     8.52118    1.94082   53.03929
      O    O13215    15.47519   -7.01333   54.62232
      H    H13216    14.53421   -6.99831   54.79709
      H    H13217    15.78960   -7.79973   55.06835
      O    O13218     5.45336   -5.33137   48.18271
      H    H13219     6.21969   -5.44323   48.74526
      H    H13220     5.53083   -6.02757   47.53039
      O    O13221     4.14803   -7.89886   48.86600
      H    H13222     4.22839   -8.84611   48.97774
      H    H13223     5.04001   -7.56817   48.97207
      O    O13224    17.47775    0.15756   56.29774
      H    H13225    17.60249    0.98067   56.77013
      H    H13226    18.34431   -0.05337   55.95016
      O    O13227     4.94951    2.25068   55.96946
      H    H13228     5.68575    1.70222   56.24031
      H    H13229     5.33360    3.11628   55.83006
      O    O13230     1.83405   -1.68197   51.84361
      H    H13231     0.90803   -1.43985   51.83415
      H    H13232     2.29970   -0.85454   51.72208
      O    O13233     3.95533    1.43528   65.15802
      H    H13234     4.75661    1.75649   65.57156
      H    H13235     3.44052    1.07484   65.88001
      O    O13236     8.05974    1.42371   47.79201
      H    H13237     8.85260    1.71259   47.34019
      H    H13238     7.54017    0.99292   47.11326
      O    O13239    12.79180   -2.45673   65.10556
      H    H13240    12.18561   -2.43357   64.36513
      H    H13241    12.48721   -3.18843   65.64228
      O    O13242    14.22183    1.27130   63.71650
      H    H13243    15.17401    1.18710   63.66652
      H    H13244    14.07466    1.93547   64.38988
      O    O13245    17.11275    0.65072   49.21569
      H    H13246    16.82690    0.23723   48.40111
      H    H13247    16.91471    1.57949   49.09574
      O    O13248     1.67511   -6.07737   64.10162
      H    H13249     2.17902   -6.65664   64.67324
      H    H13250     0.93586   -5.79335   64.63926
      O    O13251     8.57748   -3.35595   47.65625
      H    H13252     8.47254   -3.97072   48.38239
      H    H13253     8.40990   -3.87936   46.87255
      O    O13254     8.72891   -4.67027   63.63517
      H    H13255     7.96348   -4.10177   63.55064
      H    H13256     8.91050   -4.96265   62.74200
      O    O13257    11.81775   -4.29395   48.26045
      H    H13258    11.26876   -3.84702   48.90472
      H    H13259    12.43968   -4.79902   48.78422
      O    O13260    15.87124   -2.93974   64.19267
      H    H13261    16.61219   -2.60216   63.68942
      H    H13262    15.10851   -2.77053   63.63965
      O    O13263     3.70742   -7.93441   64.99663
      H    H13264     3.74796   -8.23302   65.90515
      H    H13265     4.56197   -7.53365   64.83738
      O    O13266     7.48526   -5.33486   50.15698
      H    H13267     7.90690   -5.50087   51.00012
      H    H13268     7.61035   -6.14483   49.66249
      O    O13269     5.64800   -9.35520   62.96408
      H    H13270     5.11765   -9.84611   62.33641
      H    H13271     6.31681   -8.92678   62.42987
      O    O13272     9.99803   -6.31110   47.40469
      H    H13273    10.51859   -7.02619   47.03880
      H    H13274    10.64487   -5.67251   47.70474
      O    O13275    14.54581   -4.88826   62.72820
      H    H13276    14.95991   -4.73375   63.57724
      H    H13277    13.61091   -4.76273   62.89077
      O    O13278    15.01803   -7.54864   64.73211
      H    H13279    15.60010   -8.30341   64.64416
      H    H13280    15.19420   -7.01790   63.95526
      O    O13281     9.30733   -4.93621   60.69779
      H    H13282     9.72614   -4.09293   60.52541
      H    H13283     8.38820   -4.79900   60.46847
      O    O13284    11.64372   -7.20459   62.08157
      H    H13285    11.76334   -7.80048   62.82106
      H    H13286    12.50312   -7.16762   61.66170
      O    O13287    13.98251   -6.65087   60.65782
      H    H13288    13.45603   -6.12661   60.05434
      H    H13289    14.32565   -6.01813   61.28880
      O    O13290     7.15807    1.36909   61.81356
      H    H13291     6.62018    2.09370   61.49443
      H    H13292     7.41147    0.89213   61.02330
      O    O13293    10.01430    2.60421   62.07223
      H    H13294     9.94017    3.50773   62.37946
      H    H13295     9.11218    2.28540   62.04443
      O    O13296    10.56283    1.77007   49.69486
      H    H13297    11.45791    2.10856   49.71674
      H    H13298    10.59459    1.04801   49.06729
      O    O13299     4.20244   -2.85723   47.92356
      H    H13300     4.63993   -2.31426   48.57932
      H    H13301     4.68722   -3.68253   47.93320
      O    O13302     1.41702   -0.06833   55.37559
      H    H13303     1.74733   -0.93622   55.14345
      H    H13304     1.84612    0.13753   56.20608
      O    O13305     6.01322   -1.73743   53.03579
      H    H13306     5.71277   -1.86093   53.93618
      H    H13307     5.90697   -2.59657   52.62736
      O    O13308     1.90605    0.79873   58.11375
      H    H13309     1.46914    0.97881   58.94617
      H    H13310     2.47381    1.55619   57.97192
      O    O13311    17.54226    0.30043   62.40148
      H    H13312    16.94246    0.35969   61.65787
      H    H13313    17.67165   -0.63907   62.53117
      O    O13314    18.78241   -1.95779   47.73845
      H    H13315    17.95170   -1.89012   48.20918
      H    H13316    18.95959   -1.06737   47.43514
      O    O13317    18.23805   -5.21304   50.24187
      H    H13318    18.99995   -4.64337   50.34784
      H    H13319    18.25349   -5.78032   51.01270
      O    O13320     1.73849   -6.68924   54.47264
      H    H13321     1.08337   -6.95808   53.82861
      H    H13322     2.57628   -6.79880   54.02284
      O    O13323    19.24405   -4.35803   55.08607
      H    H13324    19.61493   -5.14130   54.67966
      H    H13325    19.88424   -3.66912   54.90780
      O    O13326    16.22743   -2.97437   60.49910
      H    H13327    15.41341   -2.54465   60.76168
      H    H13328    16.63485   -2.36253   59.88600
      O    O13329    18.28997   -4.91960   47.39913
      H    H13330    18.56486   -4.01171   47.27105
      H    H13331    18.10105   -4.98335   48.33532
      O    O13332    18.18651   -6.98270   52.39207
      H    H13333    17.81087   -7.74991   51.96020
      H    H13334    17.45682   -6.60043   52.87956
      O    O13335     2.77608   -6.30399   59.01297
      H    H13336     3.14339   -6.39125   59.89258
      H    H13337     2.20716   -7.06733   58.91366
      O    O13338    17.57647   -7.83555   62.02602
      H    H13339    17.34508   -8.06427   61.12582
      H    H13340    17.83692   -6.91559   61.98051
      O    O13341     2.32768   -9.39308   62.91882
      H    H13342     1.43329   -9.42640   63.25819
      H    H13343     2.86744   -9.19440   63.68394
      O    O13344     0.95230   -9.47935   50.41517
      H    H13345     0.04870   -9.21633   50.24034
      H    H13346     1.43636   -9.20823   49.63517
      O    O13347    17.46160   -8.75695   55.69279
      H    H13348    17.98535   -9.25069   55.06181
      H    H13349    18.04754   -8.62192   56.43755
      O    O13350    17.64057   -8.67297   59.21475
      H    H13351    16.69084   -8.70661   59.32925
      H    H13352    17.82187   -7.76295   58.97972
      O    O13353    16.28503    1.77749   54.02593
      H    H13354    16.88094    1.45595   53.34937
      H    H13355    16.54285    1.30467   54.81725
      O    O13356     4.19129   -1.79072   64.17499
      H    H13357     4.14825   -2.16143   65.05643
      H    H13358     4.32239   -0.85296   64.31517
      O    O13359     7.89189   -0.23476   59.77596
      H    H13360     7.65103    0.03270   58.88901
      H    H13361     8.83216   -0.06419   59.83105
      O    O13362    19.15231    1.78468   60.57702
      H    H13363    18.65814    2.18157   59.85974
      H    H13364    18.54364    1.15960   60.97075
      O    O13365     4.03009    1.15551   61.29477
      H    H13366     3.43612    1.02398   62.03377
      H    H13367     4.02248    0.31932   60.82898
      O    O13368    16.83625    2.42702   57.85570
      H    H13369    16.37655    3.17860   57.48150
      H    H13370    16.20750    1.70767   57.79718
      O    O13371     3.66132   -1.47866   60.24557
      H    H13372     2.93472   -2.09813   60.17817
      H    H13373     3.72223   -1.08459   59.37538
      O    O13374     7.26583    0.73584   57.03051
      H    H13375     7.78233    0.12458   56.50534
      H    H13376     7.91556    1.23872   57.52161
      O    O13377    10.00538    1.62669   57.85741
      H    H13378    10.29316    1.37212   56.98071
      H    H13379    10.51770    1.07443   58.44797
      O    O13380     1.94432    1.83878   53.45525
      H    H13381     1.77652    1.20585   54.15344
      H    H13382     1.07777    2.04472   53.10467
      O    O13383     3.55059    0.53211   50.90026
      H    H13384     3.02535    0.91291   50.19646
      H    H13385     3.47504    1.15718   51.62123
      O    O13386    10.07261    2.54830   65.22423
      H    H13387    10.99934    2.31273   65.26783
      H    H13388    10.05765    3.37550   64.74283
      O    O13389    18.30712    2.09086   52.22165
      H    H13390    18.48234    1.40463   51.57775
      H    H13391    17.60927    2.61557   51.82932
      O    O13392     6.14988    2.48034   49.77519
      H    H13393     6.88176    2.19627   49.22757
      H    H13394     6.40925    2.24167   50.66512
      O    O13395     5.31136   -1.40318   49.77982
      H    H13396     4.68225   -0.93467   50.32840
      H    H13397     5.42614   -2.24826   50.21444
      O    O13398    16.64037    1.77529   65.04833
      H    H13399    17.43290    1.28021   64.84093
      H    H13400    16.93368    2.45430   65.65589
      O    O13401    31.54068   -7.35262   54.70429
      H    H13402    31.46009   -8.26716   54.43346
      H    H13403    31.12713   -6.85591   53.99826
      O    O13404    29.67249   -5.57471   56.58521
      H    H13405    28.89670   -6.05467   56.87507
      H    H13406    30.32378   -6.25415   56.41083
      O    O13407    23.68907   -5.26273   57.46279
      H    H13408    22.85756   -5.51786   57.86244
      H    H13409    24.29717   -5.19166   58.19858
      O    O13410    33.69323   -1.16870   55.36513
      H    H13411    33.23138   -1.93997   55.69384
      H    H13412    34.50579   -1.14209   55.87037
      O    O13413    23.66920   -1.22872   57.65859
      H    H13414    23.97200   -2.11895   57.47961
      H    H13415    24.41356   -0.67170   57.43082
      O    O13416    20.06157   -7.70198   57.13100
      H    H13417    20.63318   -8.46976   57.13136
      H    H13418    20.06172   -7.40310   56.22166
      O    O13419    29.91956    1.11711   54.98553
      H    H13420    29.30071    1.57286   54.41497
      H    H13421    30.77474    1.27225   54.58450
      O    O13422    29.11339   -2.89900   56.59223
      H    H13423    29.04421   -3.84000   56.43114
      H    H13424    29.87537   -2.80885   57.16449
      O    O13425    26.11518   -8.75076   56.61339
      H    H13426    26.62300   -8.25266   57.25389
      H    H13427    26.64650   -9.52724   56.43732
      O    O13428    30.78590   -3.99897   52.37872
      H    H13429    30.16762   -3.53403   51.81499
      H    H13430    31.29822   -3.30622   52.79567
      O    O13431    25.64907   -4.47138   59.05708
      H    H13432    25.31601   -3.84449   59.69918
      H    H13433    25.82574   -3.94520   58.27724
      O    O13434    24.86098   -2.50330   60.87200
      H    H13435    25.47838   -1.82820   60.59044
      H    H13436    24.00029   -2.09451   60.78075
      O    O13437    20.15422   -3.31332   49.75268
      H    H13438    19.77701   -2.82461   49.02117
      H    H13439    20.41152   -2.64079   50.38333
      O    O13440    35.77874   -1.03936   58.78746
      H    H13441    35.09509   -0.36945   58.77913
      H    H13442    36.31817   -0.84130   58.02195
      O    O13443    33.31462    0.80505   57.50198
      H    H13444    33.32733    0.40128   56.63420
      H    H13445    32.76214    1.57978   57.39812
      O    O13446    34.60916   -2.47333   52.59099
      H    H13447    34.49879   -3.41589   52.71594
      H    H13448    34.60598   -2.11176   53.47727
      O    O13449    32.71316   -4.29197   58.83024
      H    H13450    33.13004   -4.50595   57.99558
      H    H13451    33.43714   -4.03469   59.40110
      O    O13452    30.15119   -6.84680   51.94724
      H    H13453    29.22411   -6.91306   52.17609
      H    H13454    30.30367   -5.90878   51.83277
      O    O13455    36.65937   -5.89324   58.92186
      H    H13456    35.83123   -5.82393   58.44688
      H    H13457    37.25442   -5.30781   58.45345
      O    O13458    34.18091   -5.28477   52.45077
      H    H13459    33.56216   -5.62281   51.80340
      H    H13460    34.16336   -5.92879   53.15869
      O    O13461    33.62357   -9.10631   59.86735
      H    H13462    33.21069   -8.28094   60.12135
      H    H13463    32.89117   -9.69181   59.67499
      O    O13464    25.75685   -6.32032   54.72922
      H    H13465    25.35255   -7.03260   54.23381
      H    H13466    25.84316   -6.66500   55.61802
      O    O13467    26.22502   -2.63357   56.89314
      H    H13468    25.92785   -3.23902   56.21392
      H    H13469    27.17500   -2.59583   56.78207
      O    O13470    24.46971   -9.54600   58.50912
      H    H13471    25.02117   -9.43647   57.73445
      H    H13472    24.98406   -9.17224   59.22464
      O    O13473    34.31358    0.93962   60.55545
      H    H13474    33.83664    1.74684   60.36271
      H    H13475    33.62976    0.28745   60.70807
      O    O13476    25.31686   -2.89540   63.54392
      H    H13477    24.41972   -2.67140   63.79126
      H    H13478    25.34215   -2.77190   62.59506
      O    O13479    32.35738   -6.04608   49.45804
      H    H13480    32.79671   -6.88384   49.31183
      H    H13481    33.07023   -5.41314   49.54446
      O    O13482    24.14398   -6.02406   62.11965
      H    H13483    24.00476   -5.15178   62.48839
      H    H13484    23.26212   -6.36678   61.97445
      O    O13485    30.46692   -1.10648   53.42617
      H    H13486    30.90651   -0.36404   53.01171
      H    H13487    30.40561   -0.86382   54.35006
      O    O13488    25.94202   -0.08189   64.32817
      H    H13489    25.91356    0.32240   63.46101
      H    H13490    25.77852   -1.01086   64.16533
      O    O13491    22.45731   -7.42582   52.22988
      H    H13492    22.33707   -6.69961   51.61801
      H    H13493    22.14740   -8.19553   51.75267
      O    O13494    37.89350    0.70082   65.62459
      H    H13495    38.36947    1.17910   66.30349
      H    H13496    38.51422    0.63256   64.89914
      O    O13497    20.09585   -4.25431   58.03675
      H    H13498    20.17389   -4.11943   57.09232
      H    H13499    20.71002   -4.96272   58.22956
      O    O13500    21.34061   -2.55429   54.44736
      H    H13501    20.93342   -2.41283   53.59272
      H    H13502    22.23191   -2.83827   54.24448
      O    O13503    37.29683   -2.10790   62.78459
      H    H13504    37.42313   -2.34671   61.86631
      H    H13505    37.33896   -2.93945   63.25680
      O    O13506    31.15850    1.59490   61.35407
      H    H13507    31.67297    1.50570   62.15631
      H    H13508    30.31541    1.94087   61.64686
      O    O13509    33.13394    1.88043   50.78247
      H    H13510    32.97405    1.59073   51.68065
      H    H13511    32.96861    1.10445   50.24699
      O    O13512    25.61278    1.66029   52.55963
      H    H13513    25.43703    0.74384   52.34641
      H    H13514    24.75835    2.01902   52.79941
      O    O13515    32.83655   -0.61081   49.34227
      H    H13516    32.14307   -0.61308   48.68250
      H    H13517    33.57884   -1.03488   48.91169
      O    O13518    32.40155    1.01546   53.41712
      H    H13519    32.85724    0.23440   53.73098
      H    H13520    32.74080    1.72614   53.96124
      O    O13521    20.15180   -3.21289   60.57619
      H    H13522    20.31491   -3.68236   59.75813
      H    H13523    20.61705   -3.72054   61.24108
      O    O13524    31.30608   -8.49439   64.44533
      H    H13525    31.63142   -9.32802   64.10555
      H    H13526    32.09411   -7.97154   64.59316
      O    O13527    24.71510   -8.95896   53.34037
      H    H13528    24.48919   -9.17524   54.24504
      H    H13529    23.93435   -8.52611   52.99497
      O    O13530    31.94488   -8.95262   51.93944
      H    H13531    31.34577   -8.22904   51.75580
      H    H13532    32.49284   -9.01494   51.15708
      O    O13533    27.15502   -8.06040   64.00640
      H    H13534    27.05938   -9.00093   63.85644
      H    H13535    27.99822   -7.83889   63.61121
      O    O13536    31.13688   -7.72569   58.06484
      H    H13537    30.40499   -7.21701   58.41385
      H    H13538    30.73931   -8.54270   57.76372
      O    O13539    26.64878   -7.73895   48.85910
      H    H13540    26.08047   -8.18713   48.23269
      H    H13541    27.35768   -7.37967   48.32561
      O    O13542    21.72570   -3.83775   62.73577
      H    H13543    21.34118   -4.47838   63.33407
      H    H13544    22.03692   -3.13414   63.30525
      O    O13545    27.87541   -6.99010   58.21663
      H    H13546    28.24243   -7.46424   58.96277
      H    H13547    27.68592   -6.11594   58.55747
      O    O13548    25.66535   -7.94923   60.53506
      H    H13549    25.36106   -7.07003   60.76009
      H    H13550    26.62000   -7.88925   60.57080
      O    O13551    24.19353   -3.74313   51.13174
      H    H13552    23.41976   -4.28337   50.97161
      H    H13553    24.92299   -4.26247   50.79352
      O    O13554    34.95233   -4.74660   56.92438
      H    H13555    35.67224   -4.25107   56.53399
      H    H13556    34.75051   -5.42481   56.27977
      O    O13557    30.33421   -4.67569   62.81128
      H    H13558    30.26794   -5.59612   62.55704
      H    H13559    29.70472   -4.57815   63.52574
      O    O13560    33.12816   -8.98084   49.36353
      H    H13561    34.01612   -8.66911   49.18867
      H    H13562    33.09867   -9.85361   48.97159
      O    O13563    24.23727   -4.07509   54.76962
      H    H13564    24.75514   -4.87827   54.71531
      H    H13565    23.78567   -4.13718   55.61130
      O    O13566    29.12422   -2.80847   50.04235
      H    H13567    29.46579   -2.06424   49.54668
      H    H13568    28.29549   -2.49535   50.40483
      O    O13569    21.72172   -7.10896   61.68219
      H    H13570    21.36322   -6.44357   62.26953
      H    H13571    21.42718   -7.94060   62.05345
      O    O13572    24.92304   -6.65053   64.56615
      H    H13573    24.62305   -6.50482   63.66893
      H    H13574    25.69416   -7.21000   64.47349
      O    O13575    30.26588   -1.85363   62.56166
      H    H13576    30.28033   -2.78554   62.34355
      H    H13577    29.55839   -1.76766   63.20064
      O    O13578    35.39959   -7.66965   48.83152
      H    H13579    35.31596   -7.23823   47.98116
      H    H13580    36.11901   -7.20982   49.26420
      O    O13581    36.47700   -5.21290   61.90852
      H    H13582    35.75182   -4.62002   61.71146
      H    H13583    37.00455   -5.22055   61.10985
      O    O13584    36.42831   -0.81543   51.55973
      H    H13585    35.78593   -1.46986   51.83411
      H    H13586    36.04138   -0.40992   50.78380
      O    O13587    32.00696   -3.48688   55.40690
      H    H13588    32.35934   -4.08407   54.74704
      H    H13589    31.12319   -3.81246   55.57773
      O    O13590    28.09329   -2.72711   52.81394
      H    H13591    28.78040   -2.18019   53.19470
      H    H13592    27.30653   -2.18304   52.84890
      O    O13593    20.23253   -7.10983   48.30565
      H    H13594    21.10201   -6.82735   48.58924
      H    H13595    19.74156   -6.29624   48.19053
      O    O13596    27.39601   -5.72251   52.42648
      H    H13597    27.85229   -4.91199   52.65250
      H    H13598    27.04483   -6.04020   53.25833
      O    O13599    29.69927   -0.21188   59.65571
      H    H13600    30.34349   -0.00594   60.33305
      H    H13601    30.06221   -0.97304   59.20279
      O    O13602    30.97248   -2.20864   58.37345
      H    H13603    31.61470   -2.90933   58.48667
      H    H13604    31.49741   -1.42880   58.19314
      O    O13605    34.81805   -1.92378   48.09737
      H    H13606    34.59181   -2.64074   48.68983
      H    H13607    34.42767   -2.17254   47.25954
      O    O13608    32.74624   -1.40915   61.57706
      H    H13609    33.08186   -0.82248   62.25485
      H    H13610    31.82627   -1.53988   61.80684
      O    O13611    20.59965    2.10291   48.87181
      H    H13612    20.95942    2.70184   48.21754
      H    H13613    20.45889    2.64890   49.64532
      O    O13614    34.39968   -4.00659   49.75878
      H    H13615    34.11185   -3.54532   50.54657
      H    H13616    35.19489   -4.46681   50.02721
      O    O13617    20.58384    0.36839   63.34605
      H    H13618    20.69295   -0.57213   63.20559
      H    H13619    19.93190    0.63387   62.69743
      O    O13620    28.57510   -1.36002   64.74587
      H    H13621    28.25479   -2.07909   65.29044
      H    H13622    27.90093   -0.68451   64.81947
      O    O13623    26.61652   -0.51397   49.68918
      H    H13624    26.60753    0.21900   49.07363
      H    H13625    25.69635   -0.76082   49.78188
      O    O13626    22.21718   -5.29248   50.43386
      H    H13627    21.60997   -4.55259   50.44339
      H    H13628    22.69211   -5.20255   49.60768
      O    O13629    29.60248   -0.45115   48.35170
      H    H13630    29.70367   -0.65475   47.42190
      H    H13631    28.70265   -0.70532   48.55648
      O    O13632    28.75066   -8.47344   60.33334
      H    H13633    29.24918   -7.99886   60.99853
      H    H13634    28.89295   -9.39709   60.54035
      O    O13635    28.24429    2.06748   53.04647
      H    H13636    28.49844    2.02962   52.12440
      H    H13637    27.29553    1.94082   53.03929
      O    O13638    34.24954   -7.01333   54.62232
      H    H13639    33.30856   -6.99831   54.79709
      H    H13640    34.56395   -7.79973   55.06835
      O    O13641    24.22771   -5.33137   48.18271
      H    H13642    24.99404   -5.44323   48.74526
      H    H13643    24.30518   -6.02757   47.53039
      O    O13644    22.92238   -7.89886   48.86600
      H    H13645    23.00274   -8.84611   48.97774
      H    H13646    23.81436   -7.56817   48.97207
      O    O13647    36.25210    0.15756   56.29774
      H    H13648    36.37684    0.98067   56.77013
      H    H13649    37.11866   -0.05337   55.95016
      O    O13650    23.72386    2.25068   55.96946
      H    H13651    24.46010    1.70222   56.24031
      H    H13652    24.10795    3.11628   55.83006
      O    O13653    20.60840   -1.68197   51.84361
      H    H13654    19.68238   -1.43985   51.83415
      H    H13655    21.07405   -0.85454   51.72208
      O    O13656    22.72968    1.43528   65.15802
      H    H13657    23.53096    1.75649   65.57156
      H    H13658    22.21487    1.07484   65.88001
      O    O13659    26.83409    1.42371   47.79201
      H    H13660    27.62695    1.71259   47.34019
      H    H13661    26.31452    0.99292   47.11326
      O    O13662    31.56615   -2.45673   65.10556
      H    H13663    30.95996   -2.43357   64.36513
      H    H13664    31.26156   -3.18843   65.64228
      O    O13665    32.99618    1.27130   63.71650
      H    H13666    33.94836    1.18710   63.66652
      H    H13667    32.84901    1.93547   64.38988
      O    O13668    35.88710    0.65072   49.21569
      H    H13669    35.60125    0.23723   48.40111
      H    H13670    35.68906    1.57949   49.09574
      O    O13671    20.44946   -6.07737   64.10162
      H    H13672    20.95337   -6.65664   64.67324
      H    H13673    19.71021   -5.79335   64.63926
      O    O13674    27.35183   -3.35595   47.65625
      H    H13675    27.24689   -3.97072   48.38239
      H    H13676    27.18425   -3.87936   46.87255
      O    O13677    27.50326   -4.67027   63.63517
      H    H13678    26.73783   -4.10177   63.55064
      H    H13679    27.68485   -4.96265   62.74200
      O    O13680    30.59210   -4.29395   48.26045
      H    H13681    30.04311   -3.84702   48.90472
      H    H13682    31.21403   -4.79902   48.78422
      O    O13683    34.64559   -2.93974   64.19267
      H    H13684    35.38654   -2.60216   63.68942
      H    H13685    33.88286   -2.77053   63.63965
      O    O13686    22.48177   -7.93441   64.99663
      H    H13687    22.52231   -8.23302   65.90515
      H    H13688    23.33632   -7.53365   64.83738
      O    O13689    26.25961   -5.33486   50.15698
      H    H13690    26.68125   -5.50087   51.00012
      H    H13691    26.38470   -6.14483   49.66249
      O    O13692    24.42235   -9.35520   62.96408
      H    H13693    23.89200   -9.84611   62.33641
      H    H13694    25.09116   -8.92678   62.42987
      O    O13695    28.77238   -6.31110   47.40469
      H    H13696    29.29294   -7.02619   47.03880
      H    H13697    29.41922   -5.67251   47.70474
      O    O13698    33.32016   -4.88826   62.72820
      H    H13699    33.73426   -4.73375   63.57724
      H    H13700    32.38526   -4.76273   62.89077
      O    O13701    33.79238   -7.54864   64.73211
      H    H13702    34.37445   -8.30341   64.64416
      H    H13703    33.96855   -7.01790   63.95526
      O    O13704    28.08168   -4.93621   60.69779
      H    H13705    28.50049   -4.09293   60.52541
      H    H13706    27.16255   -4.79900   60.46847
      O    O13707    30.41807   -7.20459   62.08157
      H    H13708    30.53769   -7.80048   62.82106
      H    H13709    31.27747   -7.16762   61.66170
      O    O13710    32.75686   -6.65087   60.65782
      H    H13711    32.23038   -6.12661   60.05434
      H    H13712    33.10000   -6.01813   61.28880
      O    O13713    25.93242    1.36909   61.81356
      H    H13714    25.39453    2.09370   61.49443
      H    H13715    26.18582    0.89213   61.02330
      O    O13716    28.78865    2.60421   62.07223
      H    H13717    28.71452    3.50773   62.37946
      H    H13718    27.88653    2.28540   62.04443
      O    O13719    29.33718    1.77007   49.69486
      H    H13720    30.23226    2.10856   49.71674
      H    H13721    29.36894    1.04801   49.06729
      O    O13722    22.97679   -2.85723   47.92356
      H    H13723    23.41428   -2.31426   48.57932
      H    H13724    23.46157   -3.68253   47.93320
      O    O13725    20.19137   -0.06833   55.37559
      H    H13726    20.52168   -0.93622   55.14345
      H    H13727    20.62047    0.13753   56.20608
      O    O13728    24.78757   -1.73743   53.03579
      H    H13729    24.48712   -1.86093   53.93618
      H    H13730    24.68132   -2.59657   52.62736
      O    O13731    20.68040    0.79873   58.11375
      H    H13732    20.24349    0.97881   58.94617
      H    H13733    21.24816    1.55619   57.97192
      O    O13734    36.31661    0.30043   62.40148
      H    H13735    35.71681    0.35969   61.65787
      H    H13736    36.44600   -0.63907   62.53117
      O    O13737    37.55676   -1.95779   47.73845
      H    H13738    36.72605   -1.89012   48.20918
      H    H13739    37.73394   -1.06737   47.43514
      O    O13740    37.01240   -5.21304   50.24187
      H    H13741    37.77430   -4.64337   50.34784
      H    H13742    37.02784   -5.78032   51.01270
      O    O13743    20.51284   -6.68924   54.47264
      H    H13744    19.85772   -6.95808   53.82861
      H    H13745    21.35063   -6.79880   54.02284
      O    O13746    38.01840   -4.35803   55.08607
      H    H13747    38.38928   -5.14130   54.67966
      H    H13748    38.65859   -3.66912   54.90780
      O    O13749    35.00178   -2.97437   60.49910
      H    H13750    34.18776   -2.54465   60.76168
      H    H13751    35.40920   -2.36253   59.88600
      O    O13752    37.06432   -4.91960   47.39913
      H    H13753    37.33921   -4.01171   47.27105
      H    H13754    36.87540   -4.98335   48.33532
      O    O13755    36.96086   -6.98270   52.39207
      H    H13756    36.58522   -7.74991   51.96020
      H    H13757    36.23117   -6.60043   52.87956
      O    O13758    21.55043   -6.30399   59.01297
      H    H13759    21.91774   -6.39125   59.89258
      H    H13760    20.98151   -7.06733   58.91366
      O    O13761    36.35082   -7.83555   62.02602
      H    H13762    36.11943   -8.06427   61.12582
      H    H13763    36.61127   -6.91559   61.98051
      O    O13764    21.10203   -9.39308   62.91882
      H    H13765    20.20764   -9.42640   63.25819
      H    H13766    21.64179   -9.19440   63.68394
      O    O13767    19.72665   -9.47935   50.41517
      H    H13768    18.82305   -9.21633   50.24034
      H    H13769    20.21071   -9.20823   49.63517
      O    O13770    36.23595   -8.75695   55.69279
      H    H13771    36.75970   -9.25069   55.06181
      H    H13772    36.82189   -8.62192   56.43755
      O    O13773    36.41492   -8.67297   59.21475
      H    H13774    35.46519   -8.70661   59.32925
      H    H13775    36.59622   -7.76295   58.97972
      O    O13776    35.05938    1.77749   54.02593
      H    H13777    35.65529    1.45595   53.34937
      H    H13778    35.31720    1.30467   54.81725
      O    O13779    22.96564   -1.79072   64.17499
      H    H13780    22.92260   -2.16143   65.05643
      H    H13781    23.09674   -0.85296   64.31517
      O    O13782    26.66624   -0.23476   59.77596
      H    H13783    26.42538    0.03270   58.88901
      H    H13784    27.60651   -0.06419   59.83105
      O    O13785    37.92666    1.78468   60.57702
      H    H13786    37.43249    2.18157   59.85974
      H    H13787    37.31799    1.15960   60.97075
      O    O13788    22.80444    1.15551   61.29477
      H    H13789    22.21047    1.02398   62.03377
      H    H13790    22.79683    0.31932   60.82898
      O    O13791    35.61060    2.42702   57.85570
      H    H13792    35.15090    3.17860   57.48150
      H    H13793    34.98185    1.70767   57.79718
      O    O13794    22.43567   -1.47866   60.24557
      H    H13795    21.70907   -2.09813   60.17817
      H    H13796    22.49658   -1.08459   59.37538
      O    O13797    26.04018    0.73584   57.03051
      H    H13798    26.55668    0.12458   56.50534
      H    H13799    26.68991    1.23872   57.52161
      O    O13800    28.77973    1.62669   57.85741
      H    H13801    29.06751    1.37212   56.98071
      H    H13802    29.29205    1.07443   58.44797
      O    O13803    20.71867    1.83878   53.45525
      H    H13804    20.55087    1.20585   54.15344
      H    H13805    19.85212    2.04472   53.10467
      O    O13806    22.32494    0.53211   50.90026
      H    H13807    21.79970    0.91291   50.19646
      H    H13808    22.24939    1.15718   51.62123
      O    O13809    28.84696    2.54830   65.22423
      H    H13810    29.77369    2.31273   65.26783
      H    H13811    28.83200    3.37550   64.74283
      O    O13812    37.08147    2.09086   52.22165
      H    H13813    37.25669    1.40463   51.57775
      H    H13814    36.38362    2.61557   51.82932
      O    O13815    24.92423    2.48034   49.77519
      H    H13816    25.65611    2.19627   49.22757
      H    H13817    25.18360    2.24167   50.66512
      O    O13818    24.08571   -1.40318   49.77982
      H    H13819    23.45660   -0.93467   50.32840
      H    H13820    24.20049   -2.24826   50.21444
      O    O13821    35.41472    1.77529   65.04833
      H    H13822    36.20725    1.28021   64.84093
      H    H13823    35.70803    2.45430   65.65589
      O    O13824    -6.00802   11.42173   54.70429
      H    H13825    -6.08861   10.50719   54.43346
      H    H13826    -6.42157   11.91844   53.99826
      O    O13827    -7.87621   13.19964   56.58521
      H    H13828    -8.65200   12.71968   56.87507
      H    H13829    -7.22492   12.52020   56.41083
      O    O13830    -3.85547   17.60565   55.36513
      H    H13831    -4.31732   16.83438   55.69384
      H    H13832    -3.04291   17.63226   55.87037
      O    O13833    -7.62914   19.89146   54.98553
      H    H13834    -8.24799   20.34721   54.41497
      H    H13835    -6.77396   20.04660   54.58450
      O    O13836    -8.43531   15.87535   56.59223
      H    H13837    -8.50449   14.93435   56.43114
      H    H13838    -7.67333   15.96550   57.16449
      O    O13839    -7.40480    8.68239   56.81912
      H    H13840    -7.02831    7.80958   56.70649
      H    H13841    -7.50285    9.01826   55.92817
      O    O13842    -3.62238    6.17744   53.75196
      H    H13843    -2.80142    5.68709   53.79451
      H    H13844    -3.58898    6.76720   54.50514
      O    O13845     0.66757    8.19411   60.31632
      H    H13846    -0.03721    8.58228   59.79783
      H    H13847     0.93336    8.88914   60.91841
      O    O13848    -6.76280   14.77538   52.37872
      H    H13849    -7.38108   15.24032   51.81499
      H    H13850    -6.25048   15.46813   52.79567
      O    O13851    -3.38624    8.11747   56.52471
      H    H13852    -4.09068    8.40596   57.10502
      H    H13853    -3.02502    8.92749   56.16467
      O    O13854    -1.76996   17.73499   58.78746
      H    H13855    -2.45361   18.40490   58.77913
      H    H13856    -1.23053   17.93305   58.02195
      O    O13857    -0.31754    7.56295   56.91563
      H    H13858    -1.26505    7.59685   57.04718
      H    H13859     0.00745    8.37685   57.30057
      O    O13860    -4.23408   19.57940   57.50198
      H    H13861    -4.22137   19.17563   56.63420
      H    H13862    -4.78656   20.35413   57.39812
      O    O13863    -2.93954   16.30102   52.59099
      H    H13864    -3.04991   15.35846   52.71594
      H    H13865    -2.94272   16.66259   53.47727
      O    O13866    -4.83554   14.48238   58.83024
      H    H13867    -4.41866   14.26840   57.99558
      H    H13868    -4.11156   14.73966   59.40110
      O    O13869    -7.39751   11.92755   51.94724
      H    H13870    -8.32459   11.86129   52.17609
      H    H13871    -7.24503   12.86557   51.83277
      O    O13872    -7.41061    8.19925   48.94396
      H    H13873    -8.35024    8.36065   49.02921
      H    H13874    -7.09228    8.91782   48.39756
      O    O13875    -0.88933   12.88111   58.92186
      H    H13876    -1.71747   12.95042   58.44688
      H    H13877    -0.29428   13.46654   58.45345
      O    O13878    -3.36779   13.48958   52.45077
      H    H13879    -3.98654   13.15154   51.80340
      H    H13880    -3.38534   12.84556   53.15869
      O    O13881    -3.92513    9.66804   59.86735
      H    H13882    -4.33801   10.49341   60.12135
      H    H13883    -4.65753    9.08254   59.67499
      O    O13884    -3.23512   19.71397   60.55545
      H    H13885    -3.71206   20.52119   60.36271
      H    H13886    -3.91894   19.06180   60.70807
      O    O13887    -5.19132   12.72827   49.45804
      H    H13888    -4.75199   11.89051   49.31183
      H    H13889    -4.47847   13.36121   49.54446
      O    O13890    -7.08178   17.66787   53.42617
      H    H13891    -6.64219   18.41031   53.01171
      H    H13892    -7.14309   17.91053   54.35006
      O    O13893    -1.60960    3.98255   47.77215
      H    H13894    -1.92234    4.07523   48.67205
      H    H13895    -0.84835    4.56065   47.72189
      O    O13896     0.34480   19.47517   65.62459
      H    H13897     0.82077   19.95345   66.30349
      H    H13898     0.96552   19.40691   64.89914
      O    O13899    -0.25187   16.66645   62.78459
      H    H13900    -0.12557   16.42764   61.86631
      H    H13901    -0.20974   15.83490   63.25680
      O    O13902    -6.39020   20.36925   61.35407
      H    H13903    -5.87573   20.28005   62.15631
      H    H13904    -7.23329   20.71522   61.64686
      O    O13905    -4.41476   20.65478   50.78247
      H    H13906    -4.57465   20.36508   51.68065
      H    H13907    -4.58009   19.87880   50.24699
      O    O13908    -4.71215   18.16354   49.34227
      H    H13909    -5.40563   18.16127   48.68250
      H    H13910    -3.96986   17.73947   48.91169
      O    O13911    -5.14715   19.78981   53.41712
      H    H13912    -4.69146   19.00875   53.73098
      H    H13913    -4.80790   20.50049   53.96124
      O    O13914    -0.39947    8.71970   63.74956
      H    H13915    -1.01505    9.22766   63.22111
      H    H13916    -0.71983    7.81953   63.69216
      O    O13917    -8.33804    7.55889   61.21578
      H    H13918    -8.80010    7.76719   62.02777
      H    H13919    -8.74023    6.74482   60.91285
      O    O13920    -3.33759    8.77978   62.34545
      H    H13921    -4.18823    8.48036   62.66635
      H    H13922    -3.49741    9.02398   61.43383
      O    O13923    -6.24262   10.27996   64.44533
      H    H13924    -5.91728    9.44633   64.10555
      H    H13925    -5.45459   10.80281   64.59316
      O    O13926    -5.60382    9.82173   51.93944
      H    H13927    -6.20293   10.54531   51.75580
      H    H13928    -5.05586    9.75941   51.15708
      O    O13929    -6.99734    8.45808   53.96977
      H    H13930    -6.60438    8.77530   53.15664
      H    H13931    -6.63565    7.57927   54.08422
      O    O13932    -8.68812    7.20881   65.22945
      H    H13933    -9.37829    7.01603   65.86406
      H    H13934    -7.94489    7.49228   65.76188
      O    O13935    -6.41182   11.04866   58.06484
      H    H13936    -7.14371   11.55734   58.41385
      H    H13937    -6.80939   10.23165   57.76372
      O    O13938    -5.94923    6.50202   57.47714
      H    H13939    -5.93196    6.95289   58.32132
      H    H13940    -6.19767    5.60259   57.69048
      O    O13941    -2.52216    3.91524   63.31578
      H    H13942    -2.19758    3.18421   63.84157
      H    H13943    -2.48651    3.59661   62.41388
      O    O13944    -2.59637   14.02775   56.92438
      H    H13945    -1.87646   14.52328   56.53399
      H    H13946    -2.79819   13.34954   56.27977
      O    O13947    -7.13538    5.42155   51.06732
      H    H13948    -7.94892    4.92287   50.99185
      H    H13949    -7.32918    6.26137   50.65095
      O    O13950    -7.21449   14.09866   62.81128
      H    H13951    -7.28076   13.17823   62.55704
      H    H13952    -7.84398   14.19620   63.52574
      O    O13953    -4.42054    9.79351   49.36353
      H    H13954    -3.53258   10.10524   49.18867
      H    H13955    -4.45003    8.92074   48.97159
      O    O13956    -8.42448   15.96588   50.04235
      H    H13957    -8.08291   16.71011   49.54668
      H    H13958    -9.25321   16.27900   50.40483
      O    O13959    -7.28282   16.92072   62.56166
      H    H13960    -7.26837   15.98881   62.34355
      H    H13961    -7.99031   17.00669   63.20064
      O    O13962    -2.14911   11.10470   48.83152
      H    H13963    -2.23274   11.53612   47.98116
      H    H13964    -1.42969   11.56453   49.26420
      O    O13965    -1.07170   13.56145   61.90852
      H    H13966    -1.79688   14.15433   61.71146
      H    H13967    -0.54415   13.55380   61.10985
      O    O13968    -1.12039   17.95892   51.55973
      H    H13969    -1.76277   17.30449   51.83411
      H    H13970    -1.50732   18.36443   50.78380
      O    O13971    -5.54174   15.28747   55.40690
      H    H13972    -5.18936   14.69028   54.74704
      H    H13973    -6.42551   14.96189   55.57773
      O    O13974    -7.84943   18.56247   59.65571
      H    H13975    -7.20521   18.76841   60.33305
      H    H13976    -7.48649   17.80131   59.20279
      O    O13977    -6.57622   16.56571   58.37345
      H    H13978    -5.93400   15.86502   58.48667
      H    H13979    -6.05129   17.34555   58.19314
      O    O13980    -2.73065   16.85057   48.09737
      H    H13981    -2.95689   16.13361   48.68983
      H    H13982    -3.12103   16.60181   47.25954
      O    O13983    -4.80246   17.36520   61.57706
      H    H13984    -4.46684   17.95187   62.25485
      H    H13985    -5.72243   17.23447   61.80684
      O    O13986    -3.14902   14.76776   49.75878
      H    H13987    -3.43685   15.22903   50.54657
      H    H13988    -2.35381   14.30754   50.02721
      O    O13989    -5.75824    7.64695   60.10955
      H    H13990    -5.39016    6.82647   60.43750
      H    H13991    -6.61842    7.70714   60.52511
      O    O13992    -2.39204    6.60264   50.91830
      H    H13993    -3.02072    6.70721   50.20413
      H    H13994    -2.88685    6.82232   51.70769
      O    O13995    -7.94622   18.32320   48.35170
      H    H13996    -7.84503   18.11960   47.42190
      H    H13997    -8.84605   18.06903   48.55648
      O    O13998    -8.79804   10.30091   60.33334
      H    H13999    -8.29952   10.77549   60.99853
      H    H14000    -8.65575    9.37726   60.54035
      O    O14001    -6.39209    5.60630   53.77367
      H    H14002    -6.51531    5.62492   52.82462
      H    H14003    -5.44364    5.65420   53.89351
      O    O14004    -1.59136    6.51770   61.17618
      H    H14005    -2.09400    7.25824   61.51556
      H    H14006    -0.77569    6.90610   60.85986
      O    O14007    -3.29916   11.76102   54.62232
      H    H14008    -4.24014   11.77604   54.79709
      H    H14009    -2.98475   10.97462   55.06835
      O    O14010    -1.29660   18.93191   56.29774
      H    H14011    -1.17186   19.75502   56.77013
      H    H14012    -0.43004   18.72098   55.95016
      O    O14013    -5.98255   16.31762   65.10556
      H    H14014    -6.58874   16.34078   64.36513
      H    H14015    -6.28714   15.58592   65.64228
      O    O14016    -4.55252   20.04565   63.71650
      H    H14017    -3.60034   19.96145   63.66652
      H    H14018    -4.69969   20.70982   64.38988
      O    O14019    -1.66160   19.42507   49.21569
      H    H14020    -1.94745   19.01158   48.40111
      H    H14021    -1.85964   20.35384   49.09574
      O    O14022    -6.95660   14.48040   48.26045
      H    H14023    -7.50559   14.92733   48.90472
      H    H14024    -6.33467   13.97533   48.78422
      O    O14025    -2.90311   15.83461   64.19267
      H    H14026    -2.16216   16.17219   63.68942
      H    H14027    -3.66584   16.00382   63.63965
      O    O14028    -8.77632   12.46325   47.40469
      H    H14029    -8.25576   11.74816   47.03880
      H    H14030    -8.12948   13.10184   47.70474
      O    O14031    -4.22854   13.88609   62.72820
      H    H14032    -3.81444   14.04060   63.57724
      H    H14033    -5.16344   14.01162   62.89077
      O    O14034    -3.75632   11.22571   64.73211
      H    H14035    -3.17425   10.47094   64.64416
      H    H14036    -3.58015   11.75645   63.95526
      O    O14037    -7.13063   11.56976   62.08157
      H    H14038    -7.01101   10.97387   62.82106
      H    H14039    -6.27123   11.60673   61.66170
      O    O14040    -4.79184   12.12348   60.65782
      H    H14041    -5.31832   12.64774   60.05434
      H    H14042    -4.44870   12.75622   61.28880
      O    O14043    -5.54441    7.72848   63.57246
      H    H14044    -6.23286    7.06663   63.50746
      H    H14045    -4.82381    7.28230   64.01730
      O    O14046    -4.91437    4.32364   49.63148
      H    H14047    -4.63414    3.48043   49.98742
      H    H14048    -5.68779    4.55595   50.14536
      O    O14049    -8.76005   21.37856   62.07223
      H    H14050    -8.83418   22.28208   62.37946
      H    H14051    -9.66217   21.05975   62.04443
      O    O14052    -8.21152   20.54442   49.69486
      H    H14053    -7.31644   20.88291   49.71674
      H    H14054    -8.17976   19.82236   49.06729
      O    O14055    -1.23209   19.07478   62.40148
      H    H14056    -1.83189   19.13404   61.65787
      H    H14057    -1.10270   18.13528   62.53117
      O    O14058     0.00806   16.81656   47.73845
      H    H14059    -0.82265   16.88423   48.20918
      H    H14060     0.18524   17.70698   47.43514
      O    O14061    -0.53630   13.56131   50.24187
      H    H14062     0.22560   14.13098   50.34784
      H    H14063    -0.52086   12.99403   51.01270
      O    O14064     0.46970   14.41632   55.08607
      H    H14065     0.84058   13.63305   54.67966
      H    H14066     1.10989   15.10523   54.90780
      O    O14067    -2.54692   15.79998   60.49910
      H    H14068    -3.36094   16.22970   60.76168
      H    H14069    -2.13950   16.41182   59.88600
      O    O14070    -0.48438   13.85475   47.39913
      H    H14071    -0.20949   14.76264   47.27105
      H    H14072    -0.67330   13.79100   48.33532
      O    O14073    -4.08682    6.87923   48.69449
      H    H14074    -3.66833    6.69233   47.85415
      H    H14075    -4.39321    6.02714   49.00478
      O    O14076    -0.58784   11.79165   52.39207
      H    H14077    -0.96348   11.02444   51.96020
      H    H14078    -1.31753   12.17392   52.87956
      O    O14079    -1.19788   10.93880   62.02602
      H    H14080    -1.42927   10.71008   61.12582
      H    H14081    -0.93743   11.85876   61.98051
      O    O14082    -2.75908    6.16444   64.80399
      H    H14083    -1.88206    6.17278   65.18739
      H    H14084    -2.74699    5.42753   64.19323
      O    O14085    -1.31275   10.01740   55.69279
      H    H14086    -0.78900    9.52366   55.06181
      H    H14087    -0.72681   10.15243   56.43755
      O    O14088    -1.13378   10.10138   59.21475
      H    H14089    -2.08351   10.06774   59.32925
      H    H14090    -0.95248   11.01140   58.97972
      O    O14091    -1.82275    9.27473   51.63203
      H    H14092    -1.32684    9.04182   52.41692
      H    H14093    -2.02114    8.43592   51.21580
      O    O14094    -0.39404    7.91083   54.16580
      H    H14095    -0.50411    7.75643   55.10403
      H    H14096     0.36672    7.38292   53.92334
      O    O14097    -2.04746    3.85024   60.62410
      H    H14098    -1.41024    4.46365   60.99002
      H    H14099    -1.89997    3.88631   59.67902
      O    O14100     0.49499    5.74162   47.40642
      H    H14101     1.41992    5.60974   47.19824
      H    H14102     0.47257    5.82090   48.36006
      O    O14103     0.56884    6.51269   50.03209
      H    H14104    -0.22601    6.44720   50.56138
      H    H14105     0.77317    7.44775   50.02062
      O    O14106    -2.48932   20.55184   54.02593
      H    H14107    -1.89341   20.23030   53.34937
      H    H14108    -2.23150   20.07902   54.81725
      O    O14109    -8.67702    5.00286   63.53161
      H    H14110    -8.73813    5.59504   64.28115
      H    H14111    -7.73698    4.89546   63.38664
      O    O14112    -6.03956    4.65987   63.17084
      H    H14113    -5.42552    4.97779   62.50895
      H    H14114    -5.49460    4.17472   63.79043
      O    O14115     0.37796   20.55903   60.57702
      H    H14116    -0.11621   20.95592   59.85974
      H    H14117    -0.23071   19.93395   60.97075
      O    O14118    -5.29876    3.22308   59.49777
      H    H14119    -6.17277    3.55659   59.29506
      H    H14120    -5.40768    2.75040   60.32296
      O    O14121    -4.39156    5.43017   60.88194
      H    H14122    -4.72022    4.61534   60.50211
      H    H14123    -3.44333    5.38715   60.75851
      O    O14124    -1.93810   21.20137   57.85570
      H    H14125    -2.39780   21.95295   57.48150
      H    H14126    -2.56685   20.48202   57.79718
      O    O14127    -8.76897   20.40104   57.85741
      H    H14128    -8.48119   20.14647   56.98071
      H    H14129    -8.25665   19.84878   58.44797
      O    O14130    -7.55127    4.14006   58.43706
      H    H14131    -8.33409    4.61461   58.71674
      H    H14132    -7.84498    3.23555   58.32838
      O    O14133    -2.99917    4.84237   56.48197
      H    H14134    -2.55836    4.78688   55.63413
      H    H14135    -3.26841    5.75817   56.55299
      O    O14136    -1.13531    4.47390   54.49285
      H    H14137    -1.19647    3.53002   54.34595
      H    H14138    -0.35611    4.58191   55.03820
      O    O14139    -5.16335    3.22298   55.18697
      H    H14140    -4.56042    3.79500   55.66182
      H    H14141    -5.90405    3.78693   54.96436
      O    O14142    -2.01989    3.62514   50.46100
      H    H14143    -1.82483    4.52348   50.72774
      H    H14144    -2.80691    3.39385   50.95429
      O    O14145    -8.70174   21.32265   65.22423
      H    H14146    -7.77501   21.08708   65.26783
      H    H14147    -8.71670   22.14985   64.74283
      O    O14148    -0.46723   20.86521   52.22165
      H    H14149    -0.29201   20.17898   51.57775
      H    H14150    -1.16508   21.38992   51.82932
      O    O14151    -4.91383    3.40249   65.56646
      H    H14152    -5.02729    3.72195   66.46162
      H    H14153    -4.09686    3.80374   65.27019
      O    O14154    -2.13398   20.54964   65.04833
      H    H14155    -1.34145   20.05456   64.84093
      H    H14156    -1.84067   21.22865   65.65589
      O    O14157    12.76633   11.42173   54.70429
      H    H14158    12.68574   10.50719   54.43346
      H    H14159    12.35278   11.91844   53.99826
      O    O14160    10.89814   13.19964   56.58521
      H    H14161    10.12235   12.71968   56.87507
      H    H14162    11.54943   12.52020   56.41083
      O    O14163     4.91472   13.51162   57.46279
      H    H14164     4.08321   13.25649   57.86244
      H    H14165     5.52282   13.58269   58.19858
      O    O14166    14.91888   17.60565   55.36513
      H    H14167    14.45703   16.83438   55.69384
      H    H14168    15.73144   17.63226   55.87037
      O    O14169     4.89485   17.54563   57.65859
      H    H14170     5.19765   16.65540   57.47961
      H    H14171     5.63921   18.10265   57.43082
      O    O14172     3.32392    8.47181   51.24703
      H    H14173     2.43559    8.81340   51.14502
      H    H14174     3.60803    8.27184   50.35511
      O    O14175     1.28722   11.07237   57.13100
      H    H14176     1.85883   10.30459   57.13136
      H    H14177     1.28737   11.37125   56.22166
      O    O14178    11.14521   19.89146   54.98553
      H    H14179    10.52636   20.34721   54.41497
      H    H14180    12.00039   20.04660   54.58450
      O    O14181    10.33904   15.87535   56.59223
      H    H14182    10.26986   14.93435   56.43114
      H    H14183    11.10102   15.96550   57.16449
      O    O14184     2.52970    6.48081   58.91789
      H    H14185     2.34999    5.58338   59.19817
      H    H14186     2.12771    7.02799   59.59259
      O    O14187    11.36955    8.68239   56.81912
      H    H14188    11.74604    7.80958   56.70649
      H    H14189    11.27150    9.01826   55.92817
      O    O14190     5.50005    7.05496   52.28087
      H    H14191     5.60673    7.95533   52.58774
      H    H14192     4.58929    7.00675   51.99033
      O    O14193    15.15197    6.17744   53.75196
      H    H14194    15.97293    5.68709   53.79451
      H    H14195    15.18537    6.76720   54.50514
      O    O14196     3.14837    8.97686   57.52613
      H    H14197     3.82938    9.24069   58.14487
      H    H14198     2.83318    8.13694   57.85993
      O    O14199     7.34083   10.02359   56.61339
      H    H14200     7.84865   10.52169   57.25389
      H    H14201     7.87215    9.24711   56.43732
      O    O14202    19.44192    8.19411   60.31632
      H    H14203    18.73714    8.58228   59.79783
      H    H14204    19.70771    8.88914   60.91841
      O    O14205     5.62444    4.66345   60.87973
      H    H14206     5.62628    5.18069   60.07432
      H    H14207     4.79487    4.18647   60.85672
      O    O14208    12.01155   14.77538   52.37872
      H    H14209    11.39327   15.24032   51.81499
      H    H14210    12.52387   15.46813   52.79567
      O    O14211     6.87472   14.30297   59.05708
      H    H14212     6.54166   14.92986   59.69918
      H    H14213     7.05139   14.82915   58.27724
      O    O14214    15.38811    8.11747   56.52471
      H    H14215    14.68367    8.40596   57.10502
      H    H14216    15.74933    8.92749   56.16467
      O    O14217     5.30597    6.37444   58.88677
      H    H14218     5.64765    7.21865   58.59216
      H    H14219     4.36755    6.52282   59.00331
      O    O14220     6.08663   16.27105   60.87200
      H    H14221     6.70403   16.94615   60.59044
      H    H14222     5.22594   16.67984   60.78075
      O    O14223     1.37987   15.46103   49.75268
      H    H14224     1.00266   15.94974   49.02117
      H    H14225     1.63717   16.13356   50.38333
      O    O14226    17.00439   17.73499   58.78746
      H    H14227    16.32074   18.40490   58.77913
      H    H14228    17.54382   17.93305   58.02195
      O    O14229    18.45681    7.56295   56.91563
      H    H14230    17.50930    7.59685   57.04718
      H    H14231    18.78180    8.37685   57.30057
      O    O14232     8.98876    3.86267   55.21123
      H    H14233     9.29626    3.30736   54.49478
      H    H14234     8.05883    3.99712   55.02853
      O    O14235    14.54027   19.57940   57.50198
      H    H14236    14.55298   19.17563   56.63420
      H    H14237    13.98779   20.35413   57.39812
      O    O14238    15.83481   16.30102   52.59099
      H    H14239    15.72444   15.35846   52.71594
      H    H14240    15.83163   16.66259   53.47727
      O    O14241    13.93881   14.48238   58.83024
      H    H14242    14.35569   14.26840   57.99558
      H    H14243    14.66279   14.73966   59.40110
      O    O14244    11.37684   11.92755   51.94724
      H    H14245    10.44976   11.86129   52.17609
      H    H14246    11.52932   12.86557   51.83277
      O    O14247    11.36374    8.19925   48.94396
      H    H14248    10.42411    8.36065   49.02921
      H    H14249    11.68207    8.91782   48.39756
      O    O14250    17.88502   12.88111   58.92186
      H    H14251    17.05688   12.95042   58.44688
      H    H14252    18.48007   13.46654   58.45345
      O    O14253    15.40656   13.48958   52.45077
      H    H14254    14.78781   13.15154   51.80340
      H    H14255    15.38901   12.84556   53.15869
      O    O14256    14.84922    9.66804   59.86735
      H    H14257    14.43634   10.49341   60.12135
      H    H14258    14.11682    9.08254   59.67499
      O    O14259     6.98250   12.45403   54.72922
      H    H14260     6.57820   11.74175   54.23381
      H    H14261     7.06881   12.10935   55.61802
      O    O14262     7.45067   16.14078   56.89314
      H    H14263     7.15350   15.53533   56.21392
      H    H14264     8.40065   16.17852   56.78207
      O    O14265     5.69536    9.22835   58.50912
      H    H14266     6.24682    9.33788   57.73445
      H    H14267     6.20971    9.60211   59.22464
      O    O14268    15.53923   19.71397   60.55545
      H    H14269    15.06229   20.52119   60.36271
      H    H14270    14.85541   19.06180   60.70807
      O    O14271     6.54251   15.87895   63.54392
      H    H14272     5.64537   16.10295   63.79126
      H    H14273     6.56780   16.00245   62.59506
      O    O14274    13.58303   12.72827   49.45804
      H    H14275    14.02236   11.89051   49.31183
      H    H14276    14.29588   13.36121   49.54446
      O    O14277     5.36963   12.75029   62.11965
      H    H14278     5.23041   13.62257   62.48839
      H    H14279     4.48777   12.40757   61.97445
      O    O14280    11.69257   17.66787   53.42617
      H    H14281    12.13216   18.41031   53.01171
      H    H14282    11.63126   17.91053   54.35006
      O    O14283     7.16767   18.69246   64.32817
      H    H14284     7.13921   19.09675   63.46101
      H    H14285     7.00417   17.76349   64.16533
      O    O14286    17.16475    3.98255   47.77215
      H    H14287    16.85201    4.07523   48.67205
      H    H14288    17.92600    4.56065   47.72189
      O    O14289     3.68296   11.34853   52.22988
      H    H14290     3.56272   12.07474   51.61801
      H    H14291     3.37305   10.57882   51.75267
      O    O14292    19.11915   19.47517   65.62459
      H    H14293    19.59512   19.95345   66.30349
      H    H14294    19.73987   19.40691   64.89914
      O    O14295     1.32150   14.52004   58.03675
      H    H14296     1.39954   14.65492   57.09232
      H    H14297     1.93567   13.81163   58.22956
      O    O14298     2.56626   16.22006   54.44736
      H    H14299     2.15907   16.36152   53.59272
      H    H14300     3.45756   15.93608   54.24448
      O    O14301    18.52248   16.66645   62.78459
      H    H14302    18.64878   16.42764   61.86631
      H    H14303    18.56461   15.83490   63.25680
      O    O14304    12.38415   20.36925   61.35407
      H    H14305    12.89862   20.28005   62.15631
      H    H14306    11.54106   20.71522   61.64686
      O    O14307     6.83843   20.43464   52.55963
      H    H14308     6.66268   19.51819   52.34641
      H    H14309     5.98400   20.79337   52.79941
      O    O14310    13.62720   19.78981   53.41712
      H    H14311    14.08289   19.00875   53.73098
      H    H14312    13.96645   20.50049   53.96124
      O    O14313    18.37488    8.71970   63.74956
      H    H14314    17.75930    9.22766   63.22111
      H    H14315    18.05452    7.81953   63.69216
      O    O14316     1.37745   15.56146   60.57619
      H    H14317     1.54056   15.09199   59.75813
      H    H14318     1.84270   15.05381   61.24108
      O    O14319     6.14933    4.69203   55.61225
      H    H14320     5.70614    5.47299   55.28070
      H    H14321     6.70783    5.01502   56.31934
      O    O14322    10.43631    7.55889   61.21578
      H    H14323     9.97425    7.76719   62.02777
      H    H14324    10.03412    6.74482   60.91285
      O    O14325    15.43676    8.77978   62.34545
      H    H14326    14.58612    8.48036   62.66635
      H    H14327    15.27694    9.02398   61.43383
      O    O14328    12.53173   10.27996   64.44533
      H    H14329    12.85707    9.44633   64.10555
      H    H14330    13.31976   10.80281   64.59316
      O    O14331     9.26521    4.31310   50.49283
      H    H14332     8.64063    4.30909   51.21816
      H    H14333     9.17822    3.44620   50.09643
      O    O14334     8.18692    5.23677   57.47121
      H    H14335     8.48415    6.14305   57.39041
      H    H14336     8.73547    4.74864   56.85717
      O    O14337     5.94075    9.81539   53.34037
      H    H14338     5.71484    9.59911   54.24504
      H    H14339     5.16000   10.24824   52.99497
      O    O14340    13.17053    9.82173   51.93944
      H    H14341    12.57142   10.54531   51.75580
      H    H14342    13.71849    9.75941   51.15708
      O    O14343     8.38067   10.71395   64.00640
      H    H14344     8.28503    9.77342   63.85644
      H    H14345     9.22387   10.93546   63.61121
      O    O14346    11.77701    8.45808   53.96977
      H    H14347    12.16997    8.77530   53.15664
      H    H14348    12.13870    7.57927   54.08422
      O    O14349     3.51173    7.12532   62.15978
      H    H14350     3.11806    7.97284   62.36706
      H    H14351     2.82357    6.48795   62.35064
      O    O14352    10.08623    7.20881   65.22945
      H    H14353     9.39606    7.01603   65.86406
      H    H14354    10.82946    7.49228   65.76188
      O    O14355     0.81343    5.04816   56.19279
      H    H14356     0.52474    5.61845   56.90528
      H    H14357     1.55801    4.56861   56.55591
      O    O14358     1.00045    8.99017   47.40306
      H    H14359     0.91792    9.93325   47.54456
      H    H14360     0.64876    8.84766   46.52429
      O    O14361    12.36253   11.04866   58.06484
      H    H14362    11.63064   11.55734   58.41385
      H    H14363    11.96496   10.23165   57.76372
      O    O14364     8.80027    7.72408   56.47009
      H    H14365     8.80387    7.28307   55.62055
      H    H14366     9.69538    8.04581   56.57728
      O    O14367     4.65050    7.60673   55.42951
      H    H14368     4.31051    8.08425   56.18622
      H    H14369     3.88824    7.15324   55.06962
      O    O14370     8.86228    8.72528   49.46077
      H    H14371     8.98356    8.68393   50.40935
      H    H14372     8.47713    9.58770   49.30544
      O    O14373    12.82512    6.50202   57.47714
      H    H14374    12.84239    6.95289   58.32132
      H    H14375    12.57668    5.60259   57.69048
      O    O14376     7.87443   11.03540   48.85910
      H    H14377     7.30612   10.58722   48.23269
      H    H14378     8.58333   11.39468   48.32561
      O    O14379    16.25219    3.91524   63.31578
      H    H14380    16.57677    3.18421   63.84157
      H    H14381    16.28784    3.59661   62.41388
      O    O14382     2.95135   14.93660   62.73577
      H    H14383     2.56683   14.29597   63.33407
      H    H14384     3.26257   15.64021   63.30525
      O    O14385     9.10106   11.78425   58.21663
      H    H14386     9.46808   11.31011   58.96277
      H    H14387     8.91157   12.65841   58.55747
      O    O14388     1.96511    6.52862   54.34598
      H    H14389     1.67980    6.16419   55.18384
      H    H14390     1.90300    5.79667   53.73230
      O    O14391     6.89100   10.82512   60.53506
      H    H14392     6.58671   11.70432   60.76009
      H    H14393     7.84565   10.88510   60.57080
      O    O14394     5.41918   15.03122   51.13174
      H    H14395     4.64541   14.49098   50.97161
      H    H14396     6.14864   14.51188   50.79352
      O    O14397    16.17798   14.02775   56.92438
      H    H14398    16.89789   14.52328   56.53399
      H    H14399    15.97616   13.34954   56.27977
      O    O14400    11.63897    5.42155   51.06732
      H    H14401    10.82543    4.92287   50.99185
      H    H14402    11.44517    6.26137   50.65095
      O    O14403    11.55986   14.09866   62.81128
      H    H14404    11.49359   13.17823   62.55704
      H    H14405    10.93037   14.19620   63.52574
      O    O14406    14.35381    9.79351   49.36353
      H    H14407    15.24177   10.10524   49.18867
      H    H14408    14.32432    8.92074   48.97159
      O    O14409     5.46292   14.69926   54.76962
      H    H14410     5.98079   13.89608   54.71531
      H    H14411     5.01132   14.63717   55.61130
      O    O14412    10.34987   15.96588   50.04235
      H    H14413    10.69144   16.71011   49.54668
      H    H14414     9.52114   16.27900   50.40483
      O    O14415     2.94737   11.66539   61.68219
      H    H14416     2.58887   12.33078   62.26953
      H    H14417     2.65283   10.83375   62.05345
      O    O14418     6.14869   12.12382   64.56615
      H    H14419     5.84870   12.26953   63.66893
      H    H14420     6.91981   11.56435   64.47349
      O    O14421    11.49153   16.92072   62.56166
      H    H14422    11.50598   15.98881   62.34355
      H    H14423    10.78404   17.00669   63.20064
      O    O14424    16.62524   11.10470   48.83152
      H    H14425    16.54161   11.53612   47.98116
      H    H14426    17.34466   11.56453   49.26420
      O    O14427    17.70265   13.56145   61.90852
      H    H14428    16.97747   14.15433   61.71146
      H    H14429    18.23020   13.55380   61.10985
      O    O14430    17.65396   17.95892   51.55973
      H    H14431    17.01158   17.30449   51.83411
      H    H14432    17.26703   18.36443   50.78380
      O    O14433    13.23261   15.28747   55.40690
      H    H14434    13.58499   14.69028   54.74704
      H    H14435    12.34884   14.96189   55.57773
      O    O14436     9.31894   16.04724   52.81394
      H    H14437    10.00605   16.59416   53.19470
      H    H14438     8.53218   16.59131   52.84890
      O    O14439     1.45818   11.66452   48.30565
      H    H14440     2.32766   11.94700   48.58924
      H    H14441     0.96721   12.47811   48.19053
      O    O14442     8.62166   13.05184   52.42648
      H    H14443     9.07794   13.86236   52.65250
      H    H14444     8.27048   12.73415   53.25833
      O    O14445    10.92492   18.56247   59.65571
      H    H14446    11.56914   18.76841   60.33305
      H    H14447    11.28786   17.80131   59.20279
      O    O14448     4.52284    3.39560   52.89873
      H    H14449     4.39430    3.38739   53.84722
      H    H14450     3.69904    3.73391   52.54783
      O    O14451    12.19813   16.56571   58.37345
      H    H14452    12.84035   15.86502   58.48667
      H    H14453    12.72306   17.34555   58.19314
      O    O14454    13.97189   17.36520   61.57706
      H    H14455    14.30751   17.95187   62.25485
      H    H14456    13.05192   17.23447   61.80684
      O    O14457     1.82530   20.87726   48.87181
      H    H14458     2.18507   21.47619   48.21754
      H    H14459     1.68454   21.42325   49.64532
      O    O14460     1.52223    5.15472   62.35940
      H    H14461     0.80808    5.35441   62.96466
      H    H14462     1.94173    4.37867   62.73088
      O    O14463    15.62533   14.76776   49.75878
      H    H14464    15.33750   15.22903   50.54657
      H    H14465    16.42054   14.30754   50.02721
      O    O14466     1.80949   19.14274   63.34605
      H    H14467     1.91860   18.20222   63.20559
      H    H14468     1.15755   19.40822   62.69743
      O    O14469     9.80075   17.41433   64.74587
      H    H14470     9.48044   16.69526   65.29044
      H    H14471     9.12658   18.08984   64.81947
      O    O14472     7.84217   18.26038   49.68918
      H    H14473     7.83318   18.99335   49.07363
      H    H14474     6.92200   18.01353   49.78188
      O    O14475     3.44283   13.48187   50.43386
      H    H14476     2.83562   14.22176   50.44339
      H    H14477     3.91776   13.57180   49.60768
      O    O14478    13.01611    7.64695   60.10955
      H    H14479    13.38419    6.82647   60.43750
      H    H14480    12.15593    7.70714   60.52511
      O    O14481    16.38231    6.60264   50.91830
      H    H14482    15.75363    6.70721   50.20413
      H    H14483    15.88750    6.82232   51.70769
      O    O14484    10.82813   18.32320   48.35170
      H    H14485    10.92932   18.11960   47.42190
      H    H14486     9.92830   18.06903   48.55648
      O    O14487     8.35071    8.88124   52.33409
      H    H14488     7.64233    9.34987   52.77545
      H    H14489     8.63516    8.22344   52.96861
      O    O14490     9.97631   10.30091   60.33334
      H    H14491    10.47483   10.77549   60.99853
      H    H14492    10.11860    9.37726   60.54035
      O    O14493    12.38226    5.60630   53.77367
      H    H14494    12.25904    5.62492   52.82462
      H    H14495    13.33071    5.65420   53.89351
      O    O14496     9.46994   20.84183   53.04647
      H    H14497     9.72409   20.80397   52.12440
      H    H14498     8.52118   20.71517   53.03929
      O    O14499     6.55422    7.18974   49.70916
      H    H14500     7.40327    7.62676   49.64318
      H    H14501     6.18734    7.50177   50.53637
      O    O14502    17.18299    6.51770   61.17618
      H    H14503    16.68035    7.25824   61.51556
      H    H14504    17.99866    6.90610   60.85986
      O    O14505    15.47519   11.76102   54.62232
      H    H14506    14.53421   11.77604   54.79709
      H    H14507    15.78960   10.97462   55.06835
      O    O14508     5.45336   13.44298   48.18271
      H    H14509     6.21969   13.33112   48.74526
      H    H14510     5.53083   12.74678   47.53039
      O    O14511     4.14803   10.87549   48.86600
      H    H14512     4.22839    9.92824   48.97774
      H    H14513     5.04001   11.20618   48.97207
      O    O14514    17.47775   18.93191   56.29774
      H    H14515    17.60249   19.75502   56.77013
      H    H14516    18.34431   18.72098   55.95016
      O    O14517     4.94951   21.02503   55.96946
      H    H14518     5.68575   20.47657   56.24031
      H    H14519     5.33360   21.89063   55.83006
      O    O14520     1.83405   17.09238   51.84361
      H    H14521     0.90803   17.33450   51.83415
      H    H14522     2.29970   17.91981   51.72208
      O    O14523     3.95533   20.20963   65.15802
      H    H14524     4.75661   20.53084   65.57156
      H    H14525     3.44052   19.84919   65.88001
      O    O14526     8.05974   20.19806   47.79201
      H    H14527     8.85260   20.48694   47.34019
      H    H14528     7.54017   19.76727   47.11326
      O    O14529    12.79180   16.31762   65.10556
      H    H14530    12.18561   16.34078   64.36513
      H    H14531    12.48721   15.58592   65.64228
      O    O14532    14.22183   20.04565   63.71650
      H    H14533    15.17401   19.96145   63.66652
      H    H14534    14.07466   20.70982   64.38988
      O    O14535     1.67511   12.69698   64.10162
      H    H14536     2.17902   12.11771   64.67324
      H    H14537     0.93586   12.98100   64.63926
      O    O14538     8.57748   15.41840   47.65625
      H    H14539     8.47254   14.80363   48.38239
      H    H14540     8.40990   14.89499   46.87255
      O    O14541     8.72891   14.10408   63.63517
      H    H14542     7.96348   14.67258   63.55064
      H    H14543     8.91050   13.81170   62.74200
      O    O14544    11.81775   14.48040   48.26045
      H    H14545    11.26876   14.92733   48.90472
      H    H14546    12.43968   13.97533   48.78422
      O    O14547    15.87124   15.83461   64.19267
      H    H14548    16.61219   16.17219   63.68942
      H    H14549    15.10851   16.00382   63.63965
      O    O14550     3.70742   10.83994   64.99663
      H    H14551     3.74796   10.54133   65.90515
      H    H14552     4.56197   11.24070   64.83738
      O    O14553     7.48526   13.43949   50.15698
      H    H14554     7.90690   13.27348   51.00012
      H    H14555     7.61035   12.62952   49.66249
      O    O14556     5.64800    9.41915   62.96408
      H    H14557     5.11765    8.92824   62.33641
      H    H14558     6.31681    9.84757   62.42987
      O    O14559     9.99803   12.46325   47.40469
      H    H14560    10.51859   11.74816   47.03880
      H    H14561    10.64487   13.10184   47.70474
      O    O14562    14.54581   13.88609   62.72820
      H    H14563    14.95991   14.04060   63.57724
      H    H14564    13.61091   14.01162   62.89077
      O    O14565    15.01803   11.22571   64.73211
      H    H14566    15.60010   10.47094   64.64416
      H    H14567    15.19420   11.75645   63.95526
      O    O14568     6.13523    6.38539   63.04381
      H    H14569     6.04092    5.76746   62.31889
      H    H14570     5.55497    7.11201   62.81680
      O    O14571     8.90138    4.94271   60.07654
      H    H14572     8.45311    4.96514   59.23110
      H    H14573     8.26790    4.54461   60.67357
      O    O14574     9.30733   13.83814   60.69779
      H    H14575     9.72614   14.68142   60.52541
      H    H14576     8.38820   13.97535   60.46847
      O    O14577    11.64372   11.56976   62.08157
      H    H14578    11.76334   10.97387   62.82106
      H    H14579    12.50312   11.60673   61.66170
      O    O14580    13.98251   12.12348   60.65782
      H    H14581    13.45603   12.64774   60.05434
      H    H14582    14.32565   12.75622   61.28880
      O    O14583     6.38115    9.51282   47.10279
      H    H14584     6.18006    8.64955   47.46413
      H    H14585     6.21036    9.42615   46.16495
      O    O14586     7.15807   20.14344   61.81356
      H    H14587     6.62018   20.86805   61.49443
      H    H14588     7.41147   19.66648   61.02330
      O    O14589     8.41060    8.11190   63.33915
      H    H14590     9.00057    7.80348   64.02694
      H    H14591     7.59262    7.63987   63.49514
      O    O14592    13.22994    7.72848   63.57246
      H    H14593    12.54149    7.06663   63.50746
      H    H14594    13.95054    7.28230   64.01730
      O    O14595    13.85998    4.32364   49.63148
      H    H14596    14.14021    3.48043   49.98742
      H    H14597    13.08656    4.55595   50.14536
      O    O14598     5.17943    6.61288   47.09058
      H    H14599     5.48202    6.61962   46.18250
      H    H14600     5.91889    6.26266   47.58735
      O    O14601    10.01430   21.37856   62.07223
      H    H14602     9.94017   22.28208   62.37946
      H    H14603     9.11218   21.05975   62.04443
      O    O14604     8.39792    5.55634   48.07620
      H    H14605     8.05012    4.87874   47.49645
      H    H14606     8.59920    5.09529   48.89054
      O    O14607    10.56283   20.54442   49.69486
      H    H14608    11.45791   20.88291   49.71674
      H    H14609    10.59459   19.82236   49.06729
      O    O14610     4.20244   15.91712   47.92356
      H    H14611     4.63993   16.46009   48.57932
      H    H14612     4.68722   15.09182   47.93320
      O    O14613     1.41702   18.70602   55.37559
      H    H14614     1.74733   17.83813   55.14345
      H    H14615     1.84612   18.91188   56.20608
      O    O14616     6.01322   17.03692   53.03579
      H    H14617     5.71277   16.91342   53.93618
      H    H14618     5.90697   16.17778   52.62736
      O    O14619     1.90605   19.57308   58.11375
      H    H14620     1.46914   19.75316   58.94617
      H    H14621     2.47381   20.33054   57.97192
      O    O14622    17.54226   19.07478   62.40148
      H    H14623    16.94246   19.13404   61.65787
      H    H14624    17.67165   18.13528   62.53117
      O    O14625    18.78241   16.81656   47.73845
      H    H14626    17.95170   16.88423   48.20918
      H    H14627    18.95959   17.70698   47.43514
      O    O14628    18.23805   13.56131   50.24187
      H    H14629    18.99995   14.13098   50.34784
      H    H14630    18.25349   12.99403   51.01270
      O    O14631     1.73849   12.08511   54.47264
      H    H14632     1.08337   11.81627   53.82861
      H    H14633     2.57628   11.97555   54.02284
      O    O14634    19.24405   14.41632   55.08607
      H    H14635    19.61493   13.63305   54.67966
      H    H14636    19.88424   15.10523   54.90780
      O    O14637    16.22743   15.79998   60.49910
      H    H14638    15.41341   16.22970   60.76168
      H    H14639    16.63485   16.41182   59.88600
      O    O14640    18.28997   13.85475   47.39913
      H    H14641    18.56486   14.76264   47.27105
      H    H14642    18.10105   13.79100   48.33532
      O    O14643    14.68753    6.87923   48.69449
      H    H14644    15.10602    6.69233   47.85415
      H    H14645    14.38114    6.02714   49.00478
      O    O14646    18.18651   11.79165   52.39207
      H    H14647    17.81087   11.02444   51.96020
      H    H14648    17.45682   12.17392   52.87956
      O    O14649     2.77608   12.47036   59.01297
      H    H14650     3.14339   12.38310   59.89258
      H    H14651     2.20716   11.70702   58.91366
      O    O14652    17.57647   10.93880   62.02602
      H    H14653    17.34508   10.71008   61.12582
      H    H14654    17.83692   11.85876   61.98051
      O    O14655     2.32768    9.38127   62.91882
      H    H14656     1.43329    9.34795   63.25819
      H    H14657     2.86744    9.57995   63.68394
      O    O14658    16.01527    6.16444   64.80399
      H    H14659    16.89229    6.17278   65.18739
      H    H14660    16.02736    5.42753   64.19323
      O    O14661     0.95230    9.29500   50.41517
      H    H14662     0.04870    9.55802   50.24034
      H    H14663     1.43636    9.56612   49.63517
      O    O14664    17.46160   10.01740   55.69279
      H    H14665    17.98535    9.52366   55.06181
      H    H14666    18.04754   10.15243   56.43755
      O    O14667    17.64057   10.10138   59.21475
      H    H14668    16.69084   10.06774   59.32925
      H    H14669    17.82187   11.01140   58.97972
      O    O14670     3.49502    8.35155   48.32461
      H    H14671     4.20419    7.92987   47.83934
      H    H14672     2.77901    8.41908   47.69295
      O    O14673     3.14243    4.40549   47.36488
      H    H14674     3.86525    4.94638   47.68300
      H    H14675     3.41489    4.13183   46.48903
      O    O14676    16.95160    9.27473   51.63203
      H    H14677    17.44751    9.04182   52.41692
      H    H14678    16.75321    8.43592   51.21580
      O    O14679     2.83165    3.65610   57.26714
      H    H14680     3.47927    3.10584   56.82665
      H    H14681     3.25184    3.91042   58.08872
      O    O14682    18.38031    7.91083   54.16580
      H    H14683    18.27024    7.75643   55.10403
      H    H14684    19.14107    7.38292   53.92334
      O    O14685    16.72689    3.85024   60.62410
      H    H14686    17.36411    4.46365   60.99002
      H    H14687    16.87438    3.88631   59.67902
      O    O14688    19.26934    5.74162   47.40642
      H    H14689    20.19427    5.60974   47.19824
      H    H14690    19.24692    5.82090   48.36006
      O    O14691    19.34319    6.51269   50.03209
      H    H14692    18.54834    6.44720   50.56138
      H    H14693    19.54752    7.44775   50.02062
      O    O14694    16.28503   20.55184   54.02593
      H    H14695    16.88094   20.23030   53.34937
      H    H14696    16.54285   20.07902   54.81725
      O    O14697     2.58485    3.81167   60.00967
      H    H14698     2.23633    4.26805   60.77549
      H    H14699     2.25362    2.91738   60.09191
      O    O14700     4.19129   16.98363   64.17499
      H    H14701     4.14825   16.61292   65.05643
      H    H14702     4.32239   17.92139   64.31517
      O    O14703     7.89189   18.53959   59.77596
      H    H14704     7.65103   18.80705   58.88901
      H    H14705     8.83216   18.71016   59.83105
      O    O14706    10.09733    5.00286   63.53161
      H    H14707    10.03622    5.59504   64.28115
      H    H14708    11.03737    4.89546   63.38664
      O    O14709    12.73479    4.65987   63.17084
      H    H14710    13.34883    4.97779   62.50895
      H    H14711    13.27975    4.17472   63.79043
      O    O14712    19.15231   20.55903   60.57702
      H    H14713    18.65814   20.95592   59.85974
      H    H14714    18.54364   19.93395   60.97075
      O    O14715     3.25692    3.33929   63.28475
      H    H14716     3.80522    3.15810   62.52136
      H    H14717     3.32245    2.54870   63.82038
      O    O14718     4.03009   19.92986   61.29477
      H    H14719     3.43612   19.79833   62.03377
      H    H14720     4.02248   19.09367   60.82898
      O    O14721    13.47559    3.22308   59.49777
      H    H14722    12.60158    3.55659   59.29506
      H    H14723    13.36667    2.75040   60.32296
      O    O14724    14.38279    5.43017   60.88194
      H    H14725    14.05413    4.61534   60.50211
      H    H14726    15.33102    5.38715   60.75851
      O    O14727    16.83625   21.20137   57.85570
      H    H14728    16.37655   21.95295   57.48150
      H    H14729    16.20750   20.48202   57.79718
      O    O14730     3.66132   17.29569   60.24557
      H    H14731     2.93472   16.67622   60.17817
      H    H14732     3.72223   17.68976   59.37538
      O    O14733     7.26583   19.51019   57.03051
      H    H14734     7.78233   18.89893   56.50534
      H    H14735     7.91556   20.01307   57.52161
      O    O14736    10.00538   20.40104   57.85741
      H    H14737    10.29316   20.14647   56.98071
      H    H14738    10.51770   19.84878   58.44797
      O    O14739    11.22308    4.14006   58.43706
      H    H14740    10.44026    4.61461   58.71674
      H    H14741    10.92937    3.23555   58.32838
      O    O14742    15.77518    4.84237   56.48197
      H    H14743    16.21599    4.78688   55.63413
      H    H14744    15.50594    5.75817   56.55299
      O    O14745    17.63904    4.47390   54.49285
      H    H14746    17.57788    3.53002   54.34595
      H    H14747    18.41824    4.58191   55.03820
      O    O14748     1.94432   20.61313   53.45525
      H    H14749     1.77652   19.98020   54.15344
      H    H14750     1.07777   20.81907   53.10467
      O    O14751     2.56712    4.44481   50.95843
      H    H14752     3.32505    4.55770   50.38484
      H    H14753     2.10483    5.28173   50.91278
      O    O14754     9.10850    6.55874   53.94866
      H    H14755     8.29595    6.18443   53.60825
      H    H14756     9.61266    5.80325   54.25078
      O    O14757    13.61100    3.22298   55.18697
      H    H14758    14.21393    3.79500   55.66182
      H    H14759    12.87030    3.78693   54.96436
      O    O14760    16.75446    3.62514   50.46100
      H    H14761    16.94952    4.52348   50.72774
      H    H14762    15.96744    3.39385   50.95429
      O    O14763     3.55059   19.30646   50.90026
      H    H14764     3.02535   19.68726   50.19646
      H    H14765     3.47504   19.93153   51.62123
      O    O14766     4.93963    4.97122   49.49863
      H    H14767     5.46891    4.18420   49.36942
      H    H14768     5.57246    5.65034   49.73218
      O    O14769     7.13342    4.70873   52.55317
      H    H14770     6.50369    4.00746   52.72018
      H    H14771     6.59393    5.46914   52.33648
      O    O14772    10.07261   21.32265   65.22423
      H    H14773    10.99934   21.08708   65.26783
      H    H14774    10.05765   22.14985   64.74283
      O    O14775    18.30712   20.86521   52.22165
      H    H14776    18.48234   20.17898   51.57775
      H    H14777    17.60927   21.38992   51.82932
      O    O14778     7.25897    3.98713   64.98842
      H    H14779     6.97740    4.49049   64.22450
      H    H14780     7.64094    3.18930   64.62263
      O    O14781     6.14988   21.25469   49.77519
      H    H14782     6.88176   20.97062   49.22757
      H    H14783     6.40925   21.01602   50.66512
      O    O14784     5.31136   17.37117   49.77982
      H    H14785     4.68225   17.83968   50.32840
      H    H14786     5.42614   16.52609   50.21444
      O    O14787    13.86052    3.40249   65.56646
      H    H14788    13.74706    3.72195   66.46162
      H    H14789    14.67749    3.80374   65.27019
      O    O14790    16.64037   20.54964   65.04833
      H    H14791    17.43290   20.05456   64.84093
      H    H14792    16.93368   21.22865   65.65589
      O    O14793    31.54068   11.42173   54.70429
      H    H14794    31.46009   10.50719   54.43346
      H    H14795    31.12713   11.91844   53.99826
      O    O14796    29.67249   13.19964   56.58521
      H    H14797    28.89670   12.71968   56.87507
      H    H14798    30.32378   12.52020   56.41083
      O    O14799    23.68907   13.51162   57.46279
      H    H14800    22.85756   13.25649   57.86244
      H    H14801    24.29717   13.58269   58.19858
      O    O14802    33.69323   17.60565   55.36513
      H    H14803    33.23138   16.83438   55.69384
      H    H14804    34.50579   17.63226   55.87037
      O    O14805    23.66920   17.54563   57.65859
      H    H14806    23.97200   16.65540   57.47961
      H    H14807    24.41356   18.10265   57.43082
      O    O14808    22.09827    8.47181   51.24703
      H    H14809    21.20994    8.81340   51.14502
      H    H14810    22.38238    8.27184   50.35511
      O    O14811    20.06157   11.07237   57.13100
      H    H14812    20.63318   10.30459   57.13136
      H    H14813    20.06172   11.37125   56.22166
      O    O14814    29.91956   19.89146   54.98553
      H    H14815    29.30071   20.34721   54.41497
      H    H14816    30.77474   20.04660   54.58450
      O    O14817    29.11339   15.87535   56.59223
      H    H14818    29.04421   14.93435   56.43114
      H    H14819    29.87537   15.96550   57.16449
      O    O14820    21.30405    6.48081   58.91789
      H    H14821    21.12434    5.58338   59.19817
      H    H14822    20.90206    7.02799   59.59259
      O    O14823    30.14390    8.68239   56.81912
      H    H14824    30.52039    7.80958   56.70649
      H    H14825    30.04585    9.01826   55.92817
      O    O14826    24.27440    7.05496   52.28087
      H    H14827    24.38108    7.95533   52.58774
      H    H14828    23.36364    7.00675   51.99033
      O    O14829    33.92632    6.17744   53.75196
      H    H14830    34.74728    5.68709   53.79451
      H    H14831    33.95972    6.76720   54.50514
      O    O14832    21.92272    8.97686   57.52613
      H    H14833    22.60373    9.24069   58.14487
      H    H14834    21.60753    8.13694   57.85993
      O    O14835    38.21627    8.19411   60.31632
      H    H14836    37.51149    8.58228   59.79783
      H    H14837    38.48206    8.88914   60.91841
      O    O14838    24.39879    4.66345   60.87973
      H    H14839    24.40063    5.18069   60.07432
      H    H14840    23.56922    4.18647   60.85672
      O    O14841    30.78590   14.77538   52.37872
      H    H14842    30.16762   15.24032   51.81499
      H    H14843    31.29822   15.46813   52.79567
      O    O14844    25.64907   14.30297   59.05708
      H    H14845    25.31601   14.92986   59.69918
      H    H14846    25.82574   14.82915   58.27724
      O    O14847    34.16246    8.11747   56.52471
      H    H14848    33.45802    8.40596   57.10502
      H    H14849    34.52368    8.92749   56.16467
      O    O14850    24.08032    6.37444   58.88677
      H    H14851    24.42200    7.21865   58.59216
      H    H14852    23.14190    6.52282   59.00331
      O    O14853    24.86098   16.27105   60.87200
      H    H14854    25.47838   16.94615   60.59044
      H    H14855    24.00029   16.67984   60.78075
      O    O14856    20.15422   15.46103   49.75268
      H    H14857    19.77701   15.94974   49.02117
      H    H14858    20.41152   16.13356   50.38333
      O    O14859    35.77874   17.73499   58.78746
      H    H14860    35.09509   18.40490   58.77913
      H    H14861    36.31817   17.93305   58.02195
      O    O14862    37.23116    7.56295   56.91563
      H    H14863    36.28365    7.59685   57.04718
      H    H14864    37.55615    8.37685   57.30057
      O    O14865    27.76311    3.86267   55.21123
      H    H14866    28.07061    3.30736   54.49478
      H    H14867    26.83318    3.99712   55.02853
      O    O14868    33.31462   19.57940   57.50198
      H    H14869    33.32733   19.17563   56.63420
      H    H14870    32.76214   20.35413   57.39812
      O    O14871    34.60916   16.30102   52.59099
      H    H14872    34.49879   15.35846   52.71594
      H    H14873    34.60598   16.66259   53.47727
      O    O14874    32.71316   14.48238   58.83024
      H    H14875    33.13004   14.26840   57.99558
      H    H14876    33.43714   14.73966   59.40110
      O    O14877    30.15119   11.92755   51.94724
      H    H14878    29.22411   11.86129   52.17609
      H    H14879    30.30367   12.86557   51.83277
      O    O14880    30.13809    8.19925   48.94396
      H    H14881    29.19846    8.36065   49.02921
      H    H14882    30.45642    8.91782   48.39756
      O    O14883    36.65937   12.88111   58.92186
      H    H14884    35.83123   12.95042   58.44688
      H    H14885    37.25442   13.46654   58.45345
      O    O14886    34.18091   13.48958   52.45077
      H    H14887    33.56216   13.15154   51.80340
      H    H14888    34.16336   12.84556   53.15869
      O    O14889    33.62357    9.66804   59.86735
      H    H14890    33.21069   10.49341   60.12135
      H    H14891    32.89117    9.08254   59.67499
      O    O14892    24.46971    9.22835   58.50912
      H    H14893    25.02117    9.33788   57.73445
      H    H14894    24.98406    9.60211   59.22464
      O    O14895    34.31358   19.71397   60.55545
      H    H14896    33.83664   20.52119   60.36271
      H    H14897    33.62976   19.06180   60.70807
      O    O14898    25.31686   15.87895   63.54392
      H    H14899    24.41972   16.10295   63.79126
      H    H14900    25.34215   16.00245   62.59506
      O    O14901    32.35738   12.72827   49.45804
      H    H14902    32.79671   11.89051   49.31183
      H    H14903    33.07023   13.36121   49.54446
      O    O14904    24.14398   12.75029   62.11965
      H    H14905    24.00476   13.62257   62.48839
      H    H14906    23.26212   12.40757   61.97445
      O    O14907    30.46692   17.66787   53.42617
      H    H14908    30.90651   18.41031   53.01171
      H    H14909    30.40561   17.91053   54.35006
      O    O14910    25.94202   18.69246   64.32817
      H    H14911    25.91356   19.09675   63.46101
      H    H14912    25.77852   17.76349   64.16533
      O    O14913    35.93910    3.98255   47.77215
      H    H14914    35.62636    4.07523   48.67205
      H    H14915    36.70035    4.56065   47.72189
      O    O14916    22.45731   11.34853   52.22988
      H    H14917    22.33707   12.07474   51.61801
      H    H14918    22.14740   10.57882   51.75267
      O    O14919    37.89350   19.47517   65.62459
      H    H14920    38.36947   19.95345   66.30349
      H    H14921    38.51422   19.40691   64.89914
      O    O14922    20.09585   14.52004   58.03675
      H    H14923    20.17389   14.65492   57.09232
      H    H14924    20.71002   13.81163   58.22956
      O    O14925    21.34061   16.22006   54.44736
      H    H14926    20.93342   16.36152   53.59272
      H    H14927    22.23191   15.93608   54.24448
      O    O14928    37.29683   16.66645   62.78459
      H    H14929    37.42313   16.42764   61.86631
      H    H14930    37.33896   15.83490   63.25680
      O    O14931    31.15850   20.36925   61.35407
      H    H14932    31.67297   20.28005   62.15631
      H    H14933    30.31541   20.71522   61.64686
      O    O14934    33.13394   20.65478   50.78247
      H    H14935    32.97405   20.36508   51.68065
      H    H14936    32.96861   19.87880   50.24699
      O    O14937    32.83655   18.16354   49.34227
      H    H14938    32.14307   18.16127   48.68250
      H    H14939    33.57884   17.73947   48.91169
      O    O14940    32.40155   19.78981   53.41712
      H    H14941    32.85724   19.00875   53.73098
      H    H14942    32.74080   20.50049   53.96124
      O    O14943    37.14923    8.71970   63.74956
      H    H14944    36.53365    9.22766   63.22111
      H    H14945    36.82887    7.81953   63.69216
      O    O14946    20.15180   15.56146   60.57619
      H    H14947    20.31491   15.09199   59.75813
      H    H14948    20.61705   15.05381   61.24108
      O    O14949    24.92368    4.69203   55.61225
      H    H14950    24.48049    5.47299   55.28070
      H    H14951    25.48218    5.01502   56.31934
      O    O14952    29.21066    7.55889   61.21578
      H    H14953    28.74860    7.76719   62.02777
      H    H14954    28.80847    6.74482   60.91285
      O    O14955    34.21111    8.77978   62.34545
      H    H14956    33.36047    8.48036   62.66635
      H    H14957    34.05129    9.02398   61.43383
      O    O14958    31.30608   10.27996   64.44533
      H    H14959    31.63142    9.44633   64.10555
      H    H14960    32.09411   10.80281   64.59316
      O    O14961    28.03956    4.31310   50.49283
      H    H14962    27.41498    4.30909   51.21816
      H    H14963    27.95257    3.44620   50.09643
      O    O14964    26.96127    5.23677   57.47121
      H    H14965    27.25850    6.14305   57.39041
      H    H14966    27.50982    4.74864   56.85717
      O    O14967    31.94488    9.82173   51.93944
      H    H14968    31.34577   10.54531   51.75580
      H    H14969    32.49284    9.75941   51.15708
      O    O14970    27.15502   10.71395   64.00640
      H    H14971    27.05938    9.77342   63.85644
      H    H14972    27.99822   10.93546   63.61121
      O    O14973    30.55136    8.45808   53.96977
      H    H14974    30.94432    8.77530   53.15664
      H    H14975    30.91305    7.57927   54.08422
      O    O14976    22.28608    7.12532   62.15978
      H    H14977    21.89241    7.97284   62.36706
      H    H14978    21.59792    6.48795   62.35064
      O    O14979    28.86058    7.20881   65.22945
      H    H14980    28.17041    7.01603   65.86406
      H    H14981    29.60381    7.49228   65.76188
      O    O14982    19.58778    5.04816   56.19279
      H    H14983    19.29909    5.61845   56.90528
      H    H14984    20.33236    4.56861   56.55591
      O    O14985    19.77480    8.99017   47.40306
      H    H14986    19.69227    9.93325   47.54456
      H    H14987    19.42311    8.84766   46.52429
      O    O14988    31.13688   11.04866   58.06484
      H    H14989    30.40499   11.55734   58.41385
      H    H14990    30.73931   10.23165   57.76372
      O    O14991    27.57462    7.72408   56.47009
      H    H14992    27.57822    7.28307   55.62055
      H    H14993    28.46973    8.04581   56.57728
      O    O14994    23.42485    7.60673   55.42951
      H    H14995    23.08486    8.08425   56.18622
      H    H14996    22.66259    7.15324   55.06962
      O    O14997    27.63663    8.72528   49.46077
      H    H14998    27.75791    8.68393   50.40935
      H    H14999    27.25148    9.58770   49.30544
      O    O15000    31.59947    6.50202   57.47714
      H    H15001    31.61674    6.95289   58.32132
      H    H15002    31.35103    5.60259   57.69048
      O    O15003    35.02654    3.91524   63.31578
      H    H15004    35.35112    3.18421   63.84157
      H    H15005    35.06219    3.59661   62.41388
      O    O15006    21.72570   14.93660   62.73577
      H    H15007    21.34118   14.29597   63.33407
      H    H15008    22.03692   15.64021   63.30525
      O    O15009    27.87541   11.78425   58.21663
      H    H15010    28.24243   11.31011   58.96277
      H    H15011    27.68592   12.65841   58.55747
      O    O15012    20.73946    6.52862   54.34598
      H    H15013    20.45415    6.16419   55.18384
      H    H15014    20.67735    5.79667   53.73230
      O    O15015    25.66535   10.82512   60.53506
      H    H15016    25.36106   11.70432   60.76009
      H    H15017    26.62000   10.88510   60.57080
      O    O15018    34.95233   14.02775   56.92438
      H    H15019    35.67224   14.52328   56.53399
      H    H15020    34.75051   13.34954   56.27977
      O    O15021    30.41332    5.42155   51.06732
      H    H15022    29.59978    4.92287   50.99185
      H    H15023    30.21952    6.26137   50.65095
      O    O15024    30.33421   14.09866   62.81128
      H    H15025    30.26794   13.17823   62.55704
      H    H15026    29.70472   14.19620   63.52574
      O    O15027    33.12816    9.79351   49.36353
      H    H15028    34.01612   10.10524   49.18867
      H    H15029    33.09867    8.92074   48.97159
      O    O15030    29.12422   15.96588   50.04235
      H    H15031    29.46579   16.71011   49.54668
      H    H15032    28.29549   16.27900   50.40483
      O    O15033    21.72172   11.66539   61.68219
      H    H15034    21.36322   12.33078   62.26953
      H    H15035    21.42718   10.83375   62.05345
      O    O15036    24.92304   12.12382   64.56615
      H    H15037    24.62305   12.26953   63.66893
      H    H15038    25.69416   11.56435   64.47349
      O    O15039    30.26588   16.92072   62.56166
      H    H15040    30.28033   15.98881   62.34355
      H    H15041    29.55839   17.00669   63.20064
      O    O15042    35.39959   11.10470   48.83152
      H    H15043    35.31596   11.53612   47.98116
      H    H15044    36.11901   11.56453   49.26420
      O    O15045    36.47700   13.56145   61.90852
      H    H15046    35.75182   14.15433   61.71146
      H    H15047    37.00455   13.55380   61.10985
      O    O15048    36.42831   17.95892   51.55973
      H    H15049    35.78593   17.30449   51.83411
      H    H15050    36.04138   18.36443   50.78380
      O    O15051    32.00696   15.28747   55.40690
      H    H15052    32.35934   14.69028   54.74704
      H    H15053    31.12319   14.96189   55.57773
      O    O15054    20.23253   11.66452   48.30565
      H    H15055    21.10201   11.94700   48.58924
      H    H15056    19.74156   12.47811   48.19053
      O    O15057    29.69927   18.56247   59.65571
      H    H15058    30.34349   18.76841   60.33305
      H    H15059    30.06221   17.80131   59.20279
      O    O15060    23.29719    3.39560   52.89873
      H    H15061    23.16865    3.38739   53.84722
      H    H15062    22.47339    3.73391   52.54783
      O    O15063    30.97248   16.56571   58.37345
      H    H15064    31.61470   15.86502   58.48667
      H    H15065    31.49741   17.34555   58.19314
      O    O15066    34.81805   16.85057   48.09737
      H    H15067    34.59181   16.13361   48.68983
      H    H15068    34.42767   16.60181   47.25954
      O    O15069    32.74624   17.36520   61.57706
      H    H15070    33.08186   17.95187   62.25485
      H    H15071    31.82627   17.23447   61.80684
      O    O15072    20.59965   20.87726   48.87181
      H    H15073    20.95942   21.47619   48.21754
      H    H15074    20.45889   21.42325   49.64532
      O    O15075    20.29658    5.15472   62.35940
      H    H15076    19.58243    5.35441   62.96466
      H    H15077    20.71608    4.37867   62.73088
      O    O15078    34.39968   14.76776   49.75878
      H    H15079    34.11185   15.22903   50.54657
      H    H15080    35.19489   14.30754   50.02721
      O    O15081    20.58384   19.14274   63.34605
      H    H15082    20.69295   18.20222   63.20559
      H    H15083    19.93190   19.40822   62.69743
      O    O15084    28.57510   17.41433   64.74587
      H    H15085    28.25479   16.69526   65.29044
      H    H15086    27.90093   18.08984   64.81947
      O    O15087    22.21718   13.48187   50.43386
      H    H15088    21.60997   14.22176   50.44339
      H    H15089    22.69211   13.57180   49.60768
      O    O15090    31.79046    7.64695   60.10955
      H    H15091    32.15854    6.82647   60.43750
      H    H15092    30.93028    7.70714   60.52511
      O    O15093    35.15666    6.60264   50.91830
      H    H15094    34.52798    6.70721   50.20413
      H    H15095    34.66185    6.82232   51.70769
      O    O15096    29.60248   18.32320   48.35170
      H    H15097    29.70367   18.11960   47.42190
      H    H15098    28.70265   18.06903   48.55648
      O    O15099    28.75066   10.30091   60.33334
      H    H15100    29.24918   10.77549   60.99853
      H    H15101    28.89295    9.37726   60.54035
      O    O15102    31.15661    5.60630   53.77367
      H    H15103    31.03339    5.62492   52.82462
      H    H15104    32.10506    5.65420   53.89351
      O    O15105    28.24429   20.84183   53.04647
      H    H15106    28.49844   20.80397   52.12440
      H    H15107    27.29553   20.71517   53.03929
      O    O15108    25.32857    7.18974   49.70916
      H    H15109    26.17762    7.62676   49.64318
      H    H15110    24.96169    7.50177   50.53637
      O    O15111    35.95734    6.51770   61.17618
      H    H15112    35.45470    7.25824   61.51556
      H    H15113    36.77301    6.90610   60.85986
      O    O15114    34.24954   11.76102   54.62232
      H    H15115    33.30856   11.77604   54.79709
      H    H15116    34.56395   10.97462   55.06835
      O    O15117    22.92238   10.87549   48.86600
      H    H15118    23.00274    9.92824   48.97774
      H    H15119    23.81436   11.20618   48.97207
      O    O15120    36.25210   18.93191   56.29774
      H    H15121    36.37684   19.75502   56.77013
      H    H15122    37.11866   18.72098   55.95016
      O    O15123    23.72386   21.02503   55.96946
      H    H15124    24.46010   20.47657   56.24031
      H    H15125    24.10795   21.89063   55.83006
      O    O15126    20.60840   17.09238   51.84361
      H    H15127    19.68238   17.33450   51.83415
      H    H15128    21.07405   17.91981   51.72208
      O    O15129    22.72968   20.20963   65.15802
      H    H15130    23.53096   20.53084   65.57156
      H    H15131    22.21487   19.84919   65.88001
      O    O15132    31.56615   16.31762   65.10556
      H    H15133    30.95996   16.34078   64.36513
      H    H15134    31.26156   15.58592   65.64228
      O    O15135    32.99618   20.04565   63.71650
      H    H15136    33.94836   19.96145   63.66652
      H    H15137    32.84901   20.70982   64.38988
      O    O15138    35.88710   19.42507   49.21569
      H    H15139    35.60125   19.01158   48.40111
      H    H15140    35.68906   20.35384   49.09574
      O    O15141    20.44946   12.69698   64.10162
      H    H15142    20.95337   12.11771   64.67324
      H    H15143    19.71021   12.98100   64.63926
      O    O15144    27.50326   14.10408   63.63517
      H    H15145    26.73783   14.67258   63.55064
      H    H15146    27.68485   13.81170   62.74200
      O    O15147    30.59210   14.48040   48.26045
      H    H15148    30.04311   14.92733   48.90472
      H    H15149    31.21403   13.97533   48.78422
      O    O15150    34.64559   15.83461   64.19267
      H    H15151    35.38654   16.17219   63.68942
      H    H15152    33.88286   16.00382   63.63965
      O    O15153    22.48177   10.83994   64.99663
      H    H15154    22.52231   10.54133   65.90515
      H    H15155    23.33632   11.24070   64.83738
      O    O15156    24.42235    9.41915   62.96408
      H    H15157    23.89200    8.92824   62.33641
      H    H15158    25.09116    9.84757   62.42987
      O    O15159    28.77238   12.46325   47.40469
      H    H15160    29.29294   11.74816   47.03880
      H    H15161    29.41922   13.10184   47.70474
      O    O15162    33.32016   13.88609   62.72820
      H    H15163    33.73426   14.04060   63.57724
      H    H15164    32.38526   14.01162   62.89077
      O    O15165    33.79238   11.22571   64.73211
      H    H15166    34.37445   10.47094   64.64416
      H    H15167    33.96855   11.75645   63.95526
      O    O15168    24.90958    6.38539   63.04381
      H    H15169    24.81527    5.76746   62.31889
      H    H15170    24.32932    7.11201   62.81680
      O    O15171    27.67573    4.94271   60.07654
      H    H15172    27.22746    4.96514   59.23110
      H    H15173    27.04225    4.54461   60.67357
      O    O15174    28.08168   13.83814   60.69779
      H    H15175    28.50049   14.68142   60.52541
      H    H15176    27.16255   13.97535   60.46847
      O    O15177    30.41807   11.56976   62.08157
      H    H15178    30.53769   10.97387   62.82106
      H    H15179    31.27747   11.60673   61.66170
      O    O15180    32.75686   12.12348   60.65782
      H    H15181    32.23038   12.64774   60.05434
      H    H15182    33.10000   12.75622   61.28880
      O    O15183    25.93242   20.14344   61.81356
      H    H15184    25.39453   20.86805   61.49443
      H    H15185    26.18582   19.66648   61.02330
      O    O15186    27.18495    8.11190   63.33915
      H    H15187    27.77492    7.80348   64.02694
      H    H15188    26.36697    7.63987   63.49514
      O    O15189    32.00429    7.72848   63.57246
      H    H15190    31.31584    7.06663   63.50746
      H    H15191    32.72489    7.28230   64.01730
      O    O15192    32.63433    4.32364   49.63148
      H    H15193    32.91456    3.48043   49.98742
      H    H15194    31.86091    4.55595   50.14536
      O    O15195    23.95378    6.61288   47.09058
      H    H15196    24.25637    6.61962   46.18250
      H    H15197    24.69324    6.26266   47.58735
      O    O15198    28.78865   21.37856   62.07223
      H    H15199    28.71452   22.28208   62.37946
      H    H15200    27.88653   21.05975   62.04443
      O    O15201    27.17227    5.55634   48.07620
      H    H15202    26.82447    4.87874   47.49645
      H    H15203    27.37355    5.09529   48.89054
      O    O15204    29.33718   20.54442   49.69486
      H    H15205    30.23226   20.88291   49.71674
      H    H15206    29.36894   19.82236   49.06729
      O    O15207    22.97679   15.91712   47.92356
      H    H15208    23.41428   16.46009   48.57932
      H    H15209    23.46157   15.09182   47.93320
      O    O15210    20.19137   18.70602   55.37559
      H    H15211    20.52168   17.83813   55.14345
      H    H15212    20.62047   18.91188   56.20608
      O    O15213    20.68040   19.57308   58.11375
      H    H15214    20.24349   19.75316   58.94617
      H    H15215    21.24816   20.33054   57.97192
      O    O15216    36.31661   19.07478   62.40148
      H    H15217    35.71681   19.13404   61.65787
      H    H15218    36.44600   18.13528   62.53117
      O    O15219    37.55676   16.81656   47.73845
      H    H15220    36.72605   16.88423   48.20918
      H    H15221    37.73394   17.70698   47.43514
      O    O15222    37.01240   13.56131   50.24187
      H    H15223    37.77430   14.13098   50.34784
      H    H15224    37.02784   12.99403   51.01270
      O    O15225    20.51284   12.08511   54.47264
      H    H15226    19.85772   11.81627   53.82861
      H    H15227    21.35063   11.97555   54.02284
      O    O15228    38.01840   14.41632   55.08607
      H    H15229    38.38928   13.63305   54.67966
      H    H15230    38.65859   15.10523   54.90780
      O    O15231    35.00178   15.79998   60.49910
      H    H15232    34.18776   16.22970   60.76168
      H    H15233    35.40920   16.41182   59.88600
      O    O15234    37.06432   13.85475   47.39913
      H    H15235    37.33921   14.76264   47.27105
      H    H15236    36.87540   13.79100   48.33532
      O    O15237    33.46188    6.87923   48.69449
      H    H15238    33.88037    6.69233   47.85415
      H    H15239    33.15549    6.02714   49.00478
      O    O15240    36.96086   11.79165   52.39207
      H    H15241    36.58522   11.02444   51.96020
      H    H15242    36.23117   12.17392   52.87956
      O    O15243    21.55043   12.47036   59.01297
      H    H15244    21.91774   12.38310   59.89258
      H    H15245    20.98151   11.70702   58.91366
      O    O15246    36.35082   10.93880   62.02602
      H    H15247    36.11943   10.71008   61.12582
      H    H15248    36.61127   11.85876   61.98051
      O    O15249    21.10203    9.38127   62.91882
      H    H15250    20.20764    9.34795   63.25819
      H    H15251    21.64179    9.57995   63.68394
      O    O15252    34.78962    6.16444   64.80399
      H    H15253    35.66664    6.17278   65.18739
      H    H15254    34.80171    5.42753   64.19323
      O    O15255    19.72665    9.29500   50.41517
      H    H15256    18.82305    9.55802   50.24034
      H    H15257    20.21071    9.56612   49.63517
      O    O15258    36.23595   10.01740   55.69279
      H    H15259    36.75970    9.52366   55.06181
      H    H15260    36.82189   10.15243   56.43755
      O    O15261    36.41492   10.10138   59.21475
      H    H15262    35.46519   10.06774   59.32925
      H    H15263    36.59622   11.01140   58.97972
      O    O15264    22.26937    8.35155   48.32461
      H    H15265    22.97854    7.92987   47.83934
      H    H15266    21.55336    8.41908   47.69295
      O    O15267    21.91678    4.40549   47.36488
      H    H15268    22.63960    4.94638   47.68300
      H    H15269    22.18924    4.13183   46.48903
      O    O15270    35.72595    9.27473   51.63203
      H    H15271    36.22186    9.04182   52.41692
      H    H15272    35.52756    8.43592   51.21580
      O    O15273    21.60600    3.65610   57.26714
      H    H15274    22.25362    3.10584   56.82665
      H    H15275    22.02619    3.91042   58.08872
      O    O15276    37.15466    7.91083   54.16580
      H    H15277    37.04459    7.75643   55.10403
      H    H15278    37.91542    7.38292   53.92334
      O    O15279    35.50124    3.85024   60.62410
      H    H15280    36.13846    4.46365   60.99002
      H    H15281    35.64873    3.88631   59.67902
      O    O15282    38.04369    5.74162   47.40642
      H    H15283    38.96862    5.60974   47.19824
      H    H15284    38.02127    5.82090   48.36006
      O    O15285    38.11754    6.51269   50.03209
      H    H15286    37.32269    6.44720   50.56138
      H    H15287    38.32187    7.44775   50.02062
      O    O15288    35.05938   20.55184   54.02593
      H    H15289    35.65529   20.23030   53.34937
      H    H15290    35.31720   20.07902   54.81725
      O    O15291    21.35920    3.81167   60.00967
      H    H15292    21.01068    4.26805   60.77549
      H    H15293    21.02797    2.91738   60.09191
      O    O15294    22.96564   16.98363   64.17499
      H    H15295    22.92260   16.61292   65.05643
      H    H15296    23.09674   17.92139   64.31517
      O    O15297    26.66624   18.53959   59.77596
      H    H15298    26.42538   18.80705   58.88901
      H    H15299    27.60651   18.71016   59.83105
      O    O15300    28.87168    5.00286   63.53161
      H    H15301    28.81057    5.59504   64.28115
      H    H15302    29.81172    4.89546   63.38664
      O    O15303    31.50914    4.65987   63.17084
      H    H15304    32.12318    4.97779   62.50895
      H    H15305    32.05410    4.17472   63.79043
      O    O15306    37.92666   20.55903   60.57702
      H    H15307    37.43249   20.95592   59.85974
      H    H15308    37.31799   19.93395   60.97075
      O    O15309    22.03127    3.33929   63.28475
      H    H15310    22.57957    3.15810   62.52136
      H    H15311    22.09680    2.54870   63.82038
      O    O15312    22.80444   19.92986   61.29477
      H    H15313    22.21047   19.79833   62.03377
      H    H15314    22.79683   19.09367   60.82898
      O    O15315    32.24994    3.22308   59.49777
      H    H15316    31.37593    3.55659   59.29506
      H    H15317    32.14102    2.75040   60.32296
      O    O15318    33.15714    5.43017   60.88194
      H    H15319    32.82848    4.61534   60.50211
      H    H15320    34.10537    5.38715   60.75851
      O    O15321    35.61060   21.20137   57.85570
      H    H15322    35.15090   21.95295   57.48150
      H    H15323    34.98185   20.48202   57.79718
      O    O15324    22.43567   17.29569   60.24557
      H    H15325    21.70907   16.67622   60.17817
      H    H15326    22.49658   17.68976   59.37538
      O    O15327    26.04018   19.51019   57.03051
      H    H15328    26.55668   18.89893   56.50534
      H    H15329    26.68991   20.01307   57.52161
      O    O15330    28.77973   20.40104   57.85741
      H    H15331    29.06751   20.14647   56.98071
      H    H15332    29.29205   19.84878   58.44797
      O    O15333    29.99743    4.14006   58.43706
      H    H15334    29.21461    4.61461   58.71674
      H    H15335    29.70372    3.23555   58.32838
      O    O15336    34.54953    4.84237   56.48197
      H    H15337    34.99034    4.78688   55.63413
      H    H15338    34.28029    5.75817   56.55299
      O    O15339    36.41339    4.47390   54.49285
      H    H15340    36.35223    3.53002   54.34595
      H    H15341    37.19259    4.58191   55.03820
      O    O15342    20.71867   20.61313   53.45525
      H    H15343    20.55087   19.98020   54.15344
      H    H15344    19.85212   20.81907   53.10467
      O    O15345    21.34147    4.44481   50.95843
      H    H15346    22.09940    4.55770   50.38484
      H    H15347    20.87918    5.28173   50.91278
      O    O15348    27.88285    6.55874   53.94866
      H    H15349    27.07030    6.18443   53.60825
      H    H15350    28.38701    5.80325   54.25078
      O    O15351    32.38535    3.22298   55.18697
      H    H15352    32.98828    3.79500   55.66182
      H    H15353    31.64465    3.78693   54.96436
      O    O15354    35.52881    3.62514   50.46100
      H    H15355    35.72387    4.52348   50.72774
      H    H15356    34.74179    3.39385   50.95429
      O    O15357    22.32494   19.30646   50.90026
      H    H15358    21.79970   19.68726   50.19646
      H    H15359    22.24939   19.93153   51.62123
      O    O15360    23.71398    4.97122   49.49863
      H    H15361    24.24326    4.18420   49.36942
      H    H15362    24.34681    5.65034   49.73218
      O    O15363    25.90777    4.70873   52.55317
      H    H15364    25.27804    4.00746   52.72018
      H    H15365    25.36828    5.46914   52.33648
      O    O15366    28.84696   21.32265   65.22423
      H    H15367    29.77369   21.08708   65.26783
      H    H15368    28.83200   22.14985   64.74283
      O    O15369    37.08147   20.86521   52.22165
      H    H15370    37.25669   20.17898   51.57775
      H    H15371    36.38362   21.38992   51.82932
      O    O15372    26.03332    3.98713   64.98842
      H    H15373    25.75175    4.49049   64.22450
      H    H15374    26.41529    3.18930   64.62263
      O    O15375    32.63487    3.40249   65.56646
      H    H15376    32.52141    3.72195   66.46162
      H    H15377    33.45184    3.80374   65.27019
      O    O15378    35.41472   20.54964   65.04833
      H    H15379    36.20725   20.05456   64.84093
      H    H15380    35.70803   21.22865   65.65589
      O    O15381    -6.00802   30.19608   54.70429
      H    H15382    -6.08861   29.28154   54.43346
      H    H15383    -6.42157   30.69279   53.99826
      O    O15384    -7.87621   31.97399   56.58521
      H    H15385    -8.65200   31.49403   56.87507
      H    H15386    -7.22492   31.29455   56.41083
      O    O15387    -3.85547   36.38000   55.36513
      H    H15388    -4.31732   35.60873   55.69384
      H    H15389    -3.04291   36.40661   55.87037
      O    O15390    -7.62914   38.66581   54.98553
      H    H15391    -8.24799   39.12156   54.41497
      H    H15392    -6.77396   38.82095   54.58450
      O    O15393    -8.43531   34.64970   56.59223
      H    H15394    -8.50449   33.70870   56.43114
      H    H15395    -7.67333   34.73985   57.16449
      O    O15396    -7.40480   27.45674   56.81912
      H    H15397    -7.02831   26.58393   56.70649
      H    H15398    -7.50285   27.79261   55.92817
      O    O15399    -3.62238   24.95179   53.75196
      H    H15400    -2.80142   24.46144   53.79451
      H    H15401    -3.58898   25.54155   54.50514
      O    O15402     0.66757   26.96846   60.31632
      H    H15403    -0.03721   27.35663   59.79783
      H    H15404     0.93336   27.66349   60.91841
      O    O15405    -6.76280   33.54973   52.37872
      H    H15406    -7.38108   34.01467   51.81499
      H    H15407    -6.25048   34.24248   52.79567
      O    O15408    -3.38624   26.89182   56.52471
      H    H15409    -4.09068   27.18031   57.10502
      H    H15410    -3.02502   27.70184   56.16467
      O    O15411    -1.76996   36.50934   58.78746
      H    H15412    -2.45361   37.17925   58.77913
      H    H15413    -1.23053   36.70740   58.02195
      O    O15414    -0.31754   26.33730   56.91563
      H    H15415    -1.26505   26.37120   57.04718
      H    H15416     0.00745   27.15120   57.30057
      O    O15417    -4.23408   38.35375   57.50198
      H    H15418    -4.22137   37.94998   56.63420
      H    H15419    -4.78656   39.12848   57.39812
      O    O15420    -2.93954   35.07537   52.59099
      H    H15421    -3.04991   34.13281   52.71594
      H    H15422    -2.94272   35.43694   53.47727
      O    O15423    -4.83554   33.25673   58.83024
      H    H15424    -4.41866   33.04275   57.99558
      H    H15425    -4.11156   33.51401   59.40110
      O    O15426    -7.39751   30.70190   51.94724
      H    H15427    -8.32459   30.63564   52.17609
      H    H15428    -7.24503   31.63992   51.83277
      O    O15429    -7.41061   26.97360   48.94396
      H    H15430    -8.35024   27.13500   49.02921
      H    H15431    -7.09228   27.69217   48.39756
      O    O15432    -0.88933   31.65546   58.92186
      H    H15433    -1.71747   31.72477   58.44688
      H    H15434    -0.29428   32.24089   58.45345
      O    O15435    -3.36779   32.26393   52.45077
      H    H15436    -3.98654   31.92589   51.80340
      H    H15437    -3.38534   31.61991   53.15869
      O    O15438    -3.92513   28.44239   59.86735
      H    H15439    -4.33801   29.26776   60.12135
      H    H15440    -4.65753   27.85689   59.67499
      O    O15441    -3.23512   38.48832   60.55545
      H    H15442    -3.71206   39.29554   60.36271
      H    H15443    -3.91894   37.83615   60.70807
      O    O15444    -5.19132   31.50262   49.45804
      H    H15445    -4.75199   30.66486   49.31183
      H    H15446    -4.47847   32.13556   49.54446
      O    O15447    -7.08178   36.44222   53.42617
      H    H15448    -6.64219   37.18466   53.01171
      H    H15449    -7.14309   36.68488   54.35006
      O    O15450    -1.60960   22.75690   47.77215
      H    H15451    -1.92234   22.84958   48.67205
      H    H15452    -0.84835   23.33500   47.72189
      O    O15453     0.34480   38.24952   65.62459
      H    H15454     0.82077   38.72780   66.30349
      H    H15455     0.96552   38.18126   64.89914
      O    O15456    -0.25187   35.44080   62.78459
      H    H15457    -0.12557   35.20199   61.86631
      H    H15458    -0.20974   34.60925   63.25680
      O    O15459    -6.39020   39.14360   61.35407
      H    H15460    -5.87573   39.05440   62.15631
      H    H15461    -7.23329   39.48957   61.64686
      O    O15462    -4.41476   39.42913   50.78247
      H    H15463    -4.57465   39.13943   51.68065
      H    H15464    -4.58009   38.65315   50.24699
      O    O15465    -4.71215   36.93789   49.34227
      H    H15466    -5.40563   36.93562   48.68250
      H    H15467    -3.96986   36.51382   48.91169
      O    O15468    -5.14715   38.56416   53.41712
      H    H15469    -4.69146   37.78310   53.73098
      H    H15470    -4.80790   39.27484   53.96124
      O    O15471    -0.39947   27.49405   63.74956
      H    H15472    -1.01505   28.00201   63.22111
      H    H15473    -0.71983   26.59388   63.69216
      O    O15474    -8.33804   26.33324   61.21578
      H    H15475    -8.80010   26.54154   62.02777
      H    H15476    -8.74023   25.51917   60.91285
      O    O15477    -3.33759   27.55413   62.34545
      H    H15478    -4.18823   27.25471   62.66635
      H    H15479    -3.49741   27.79833   61.43383
      O    O15480    -6.24262   29.05431   64.44533
      H    H15481    -5.91728   28.22068   64.10555
      H    H15482    -5.45459   29.57716   64.59316
      O    O15483    -5.60382   28.59608   51.93944
      H    H15484    -6.20293   29.31966   51.75580
      H    H15485    -5.05586   28.53376   51.15708
      O    O15486    -6.99734   27.23243   53.96977
      H    H15487    -6.60438   27.54965   53.15664
      H    H15488    -6.63565   26.35362   54.08422
      O    O15489    -8.68812   25.98316   65.22945
      H    H15490    -9.37829   25.79038   65.86406
      H    H15491    -7.94489   26.26663   65.76188
      O    O15492    -6.41182   29.82301   58.06484
      H    H15493    -7.14371   30.33169   58.41385
      H    H15494    -6.80939   29.00600   57.76372
      O    O15495    -5.94923   25.27637   57.47714
      H    H15496    -5.93196   25.72724   58.32132
      H    H15497    -6.19767   24.37694   57.69048
      O    O15498    -2.52216   22.68959   63.31578
      H    H15499    -2.19758   21.95856   63.84157
      H    H15500    -2.48651   22.37096   62.41388
      O    O15501    -2.59637   32.80210   56.92438
      H    H15502    -1.87646   33.29763   56.53399
      H    H15503    -2.79819   32.12389   56.27977
      O    O15504    -7.13538   24.19590   51.06732
      H    H15505    -7.94892   23.69722   50.99185
      H    H15506    -7.32918   25.03572   50.65095
      O    O15507    -7.21449   32.87301   62.81128
      H    H15508    -7.28076   31.95258   62.55704
      H    H15509    -7.84398   32.97055   63.52574
      O    O15510    -4.42054   28.56786   49.36353
      H    H15511    -3.53258   28.87959   49.18867
      H    H15512    -4.45003   27.69509   48.97159
      O    O15513    -8.42448   34.74023   50.04235
      H    H15514    -8.08291   35.48446   49.54668
      H    H15515    -9.25321   35.05335   50.40483
      O    O15516    -7.28282   35.69507   62.56166
      H    H15517    -7.26837   34.76316   62.34355
      H    H15518    -7.99031   35.78104   63.20064
      O    O15519    -2.14911   29.87905   48.83152
      H    H15520    -2.23274   30.31047   47.98116
      H    H15521    -1.42969   30.33888   49.26420
      O    O15522    -1.07170   32.33580   61.90852
      H    H15523    -1.79688   32.92868   61.71146
      H    H15524    -0.54415   32.32815   61.10985
      O    O15525    -1.12039   36.73327   51.55973
      H    H15526    -1.76277   36.07884   51.83411
      H    H15527    -1.50732   37.13878   50.78380
      O    O15528    -5.54174   34.06182   55.40690
      H    H15529    -5.18936   33.46463   54.74704
      H    H15530    -6.42551   33.73624   55.57773
      O    O15531    -7.84943   37.33682   59.65571
      H    H15532    -7.20521   37.54276   60.33305
      H    H15533    -7.48649   36.57566   59.20279
      O    O15534    -6.57622   35.34006   58.37345
      H    H15535    -5.93400   34.63937   58.48667
      H    H15536    -6.05129   36.11990   58.19314
      O    O15537    -2.73065   35.62492   48.09737
      H    H15538    -2.95689   34.90796   48.68983
      H    H15539    -3.12103   35.37616   47.25954
      O    O15540    -4.80246   36.13955   61.57706
      H    H15541    -4.46684   36.72622   62.25485
      H    H15542    -5.72243   36.00882   61.80684
      O    O15543    -3.14902   33.54211   49.75878
      H    H15544    -3.43685   34.00338   50.54657
      H    H15545    -2.35381   33.08189   50.02721
      O    O15546    -5.75824   26.42130   60.10955
      H    H15547    -5.39016   25.60082   60.43750
      H    H15548    -6.61842   26.48149   60.52511
      O    O15549    -2.39204   25.37699   50.91830
      H    H15550    -3.02072   25.48156   50.20413
      H    H15551    -2.88685   25.59667   51.70769
      O    O15552    -7.94622   37.09755   48.35170
      H    H15553    -7.84503   36.89395   47.42190
      H    H15554    -8.84605   36.84338   48.55648
      O    O15555    -8.79804   29.07526   60.33334
      H    H15556    -8.29952   29.54984   60.99853
      H    H15557    -8.65575   28.15161   60.54035
      O    O15558    -6.39209   24.38065   53.77367
      H    H15559    -6.51531   24.39927   52.82462
      H    H15560    -5.44364   24.42855   53.89351
      O    O15561    -1.59136   25.29205   61.17618
      H    H15562    -2.09400   26.03259   61.51556
      H    H15563    -0.77569   25.68045   60.85986
      O    O15564    -3.29916   30.53537   54.62232
      H    H15565    -4.24014   30.55039   54.79709
      H    H15566    -2.98475   29.74897   55.06835
      O    O15567    -1.29660   37.70626   56.29774
      H    H15568    -1.17186   38.52937   56.77013
      H    H15569    -0.43004   37.49533   55.95016
      O    O15570    -5.98255   35.09197   65.10556
      H    H15571    -6.58874   35.11513   64.36513
      H    H15572    -6.28714   34.36027   65.64228
      O    O15573    -4.55252   38.82000   63.71650
      H    H15574    -3.60034   38.73580   63.66652
      H    H15575    -4.69969   39.48417   64.38988
      O    O15576    -1.66160   38.19942   49.21569
      H    H15577    -1.94745   37.78593   48.40111
      H    H15578    -1.85964   39.12819   49.09574
      O    O15579    -6.95660   33.25475   48.26045
      H    H15580    -7.50559   33.70168   48.90472
      H    H15581    -6.33467   32.74968   48.78422
      O    O15582    -2.90311   34.60896   64.19267
      H    H15583    -2.16216   34.94654   63.68942
      H    H15584    -3.66584   34.77817   63.63965
      O    O15585    -8.77632   31.23760   47.40469
      H    H15586    -8.25576   30.52251   47.03880
      H    H15587    -8.12948   31.87619   47.70474
      O    O15588    -4.22854   32.66044   62.72820
      H    H15589    -3.81444   32.81495   63.57724
      H    H15590    -5.16344   32.78597   62.89077
      O    O15591    -3.75632   30.00006   64.73211
      H    H15592    -3.17425   29.24529   64.64416
      H    H15593    -3.58015   30.53080   63.95526
      O    O15594    -7.13063   30.34411   62.08157
      H    H15595    -7.01101   29.74822   62.82106
      H    H15596    -6.27123   30.38108   61.66170
      O    O15597    -4.79184   30.89783   60.65782
      H    H15598    -5.31832   31.42209   60.05434
      H    H15599    -4.44870   31.53057   61.28880
      O    O15600    -5.54441   26.50283   63.57246
      H    H15601    -6.23286   25.84098   63.50746
      H    H15602    -4.82381   26.05665   64.01730
      O    O15603    -4.91437   23.09799   49.63148
      H    H15604    -4.63414   22.25478   49.98742
      H    H15605    -5.68779   23.33030   50.14536
      O    O15606    -8.76005   40.15291   62.07223
      H    H15607    -8.83418   41.05643   62.37946
      H    H15608    -9.66217   39.83410   62.04443
      O    O15609    -8.21152   39.31877   49.69486
      H    H15610    -7.31644   39.65726   49.71674
      H    H15611    -8.17976   38.59671   49.06729
      O    O15612    -1.23209   37.84913   62.40148
      H    H15613    -1.83189   37.90839   61.65787
      H    H15614    -1.10270   36.90963   62.53117
      O    O15615     0.00806   35.59091   47.73845
      H    H15616    -0.82265   35.65858   48.20918
      H    H15617     0.18524   36.48133   47.43514
      O    O15618    -0.53630   32.33566   50.24187
      H    H15619     0.22560   32.90533   50.34784
      H    H15620    -0.52086   31.76838   51.01270
      O    O15621     0.46970   33.19067   55.08607
      H    H15622     0.84058   32.40740   54.67966
      H    H15623     1.10989   33.87958   54.90780
      O    O15624    -2.54692   34.57433   60.49910
      H    H15625    -3.36094   35.00405   60.76168
      H    H15626    -2.13950   35.18617   59.88600
      O    O15627    -0.48438   32.62910   47.39913
      H    H15628    -0.20949   33.53699   47.27105
      H    H15629    -0.67330   32.56535   48.33532
      O    O15630    -4.08682   25.65358   48.69449
      H    H15631    -3.66833   25.46668   47.85415
      H    H15632    -4.39321   24.80149   49.00478
      O    O15633    -0.58784   30.56600   52.39207
      H    H15634    -0.96348   29.79879   51.96020
      H    H15635    -1.31753   30.94827   52.87956
      O    O15636    -1.19788   29.71315   62.02602
      H    H15637    -1.42927   29.48443   61.12582
      H    H15638    -0.93743   30.63311   61.98051
      O    O15639    -2.75908   24.93879   64.80399
      H    H15640    -1.88206   24.94713   65.18739
      H    H15641    -2.74699   24.20188   64.19323
      O    O15642    -1.31275   28.79175   55.69279
      H    H15643    -0.78900   28.29801   55.06181
      H    H15644    -0.72681   28.92678   56.43755
      O    O15645    -1.13378   28.87573   59.21475
      H    H15646    -2.08351   28.84209   59.32925
      H    H15647    -0.95248   29.78575   58.97972
      O    O15648    -1.82275   28.04908   51.63203
      H    H15649    -1.32684   27.81617   52.41692
      H    H15650    -2.02114   27.21027   51.21580
      O    O15651    -0.39404   26.68518   54.16580
      H    H15652    -0.50411   26.53078   55.10403
      H    H15653     0.36672   26.15727   53.92334
      O    O15654    -2.04746   22.62459   60.62410
      H    H15655    -1.41024   23.23800   60.99002
      H    H15656    -1.89997   22.66066   59.67902
      O    O15657     0.49499   24.51597   47.40642
      H    H15658     1.41992   24.38409   47.19824
      H    H15659     0.47257   24.59525   48.36006
      O    O15660     0.56884   25.28704   50.03209
      H    H15661    -0.22601   25.22155   50.56138
      H    H15662     0.77317   26.22210   50.02062
      O    O15663    -2.48932   39.32619   54.02593
      H    H15664    -1.89341   39.00465   53.34937
      H    H15665    -2.23150   38.85337   54.81725
      O    O15666    -8.67702   23.77721   63.53161
      H    H15667    -8.73813   24.36939   64.28115
      H    H15668    -7.73698   23.66981   63.38664
      O    O15669    -6.03956   23.43422   63.17084
      H    H15670    -5.42552   23.75214   62.50895
      H    H15671    -5.49460   22.94907   63.79043
      O    O15672     0.37796   39.33338   60.57702
      H    H15673    -0.11621   39.73027   59.85974
      H    H15674    -0.23071   38.70830   60.97075
      O    O15675    -5.29876   21.99743   59.49777
      H    H15676    -6.17277   22.33094   59.29506
      H    H15677    -5.40768   21.52475   60.32296
      O    O15678    -4.39156   24.20452   60.88194
      H    H15679    -4.72022   23.38969   60.50211
      H    H15680    -3.44333   24.16150   60.75851
      O    O15681    -1.93810   39.97572   57.85570
      H    H15682    -2.39780   40.72730   57.48150
      H    H15683    -2.56685   39.25637   57.79718
      O    O15684    -8.76897   39.17539   57.85741
      H    H15685    -8.48119   38.92082   56.98071
      H    H15686    -8.25665   38.62313   58.44797
      O    O15687    -7.55127   22.91441   58.43706
      H    H15688    -8.33409   23.38896   58.71674
      H    H15689    -7.84498   22.00990   58.32838
      O    O15690    -2.99917   23.61672   56.48197
      H    H15691    -2.55836   23.56123   55.63413
      H    H15692    -3.26841   24.53252   56.55299
      O    O15693    -1.13531   23.24825   54.49285
      H    H15694    -1.19647   22.30437   54.34595
      H    H15695    -0.35611   23.35626   55.03820
      O    O15696    -5.16335   21.99733   55.18697
      H    H15697    -4.56042   22.56935   55.66182
      H    H15698    -5.90405   22.56128   54.96436
      O    O15699    -2.01989   22.39949   50.46100
      H    H15700    -1.82483   23.29783   50.72774
      H    H15701    -2.80691   22.16820   50.95429
      O    O15702    -8.70174   40.09700   65.22423
      H    H15703    -7.77501   39.86143   65.26783
      H    H15704    -8.71670   40.92420   64.74283
      O    O15705    -0.46723   39.63956   52.22165
      H    H15706    -0.29201   38.95333   51.57775
      H    H15707    -1.16508   40.16427   51.82932
      O    O15708    -4.91383   22.17684   65.56646
      H    H15709    -5.02729   22.49630   66.46162
      H    H15710    -4.09686   22.57809   65.27019
      O    O15711    -2.13398   39.32399   65.04833
      H    H15712    -1.34145   38.82891   64.84093
      H    H15713    -1.84067   40.00300   65.65589
      O    O15714    12.76633   30.19608   54.70429
      H    H15715    12.68574   29.28154   54.43346
      H    H15716    12.35278   30.69279   53.99826
      O    O15717    10.89814   31.97399   56.58521
      H    H15718    10.12235   31.49403   56.87507
      H    H15719    11.54943   31.29455   56.41083
      O    O15720     4.91472   32.28597   57.46279
      H    H15721     4.08321   32.03084   57.86244
      H    H15722     5.52282   32.35704   58.19858
      O    O15723    14.91888   36.38000   55.36513
      H    H15724    14.45703   35.60873   55.69384
      H    H15725    15.73144   36.40661   55.87037
      O    O15726     4.89485   36.31998   57.65859
      H    H15727     5.19765   35.42975   57.47961
      H    H15728     5.63921   36.87700   57.43082
      O    O15729     3.32392   27.24616   51.24703
      H    H15730     2.43559   27.58775   51.14502
      H    H15731     3.60803   27.04619   50.35511
      O    O15732     1.28722   29.84672   57.13100
      H    H15733     1.85883   29.07894   57.13136
      H    H15734     1.28737   30.14560   56.22166
      O    O15735    11.14521   38.66581   54.98553
      H    H15736    10.52636   39.12156   54.41497
      H    H15737    12.00039   38.82095   54.58450
      O    O15738    10.33904   34.64970   56.59223
      H    H15739    10.26986   33.70870   56.43114
      H    H15740    11.10102   34.73985   57.16449
      O    O15741     2.52970   25.25516   58.91789
      H    H15742     2.34999   24.35773   59.19817
      H    H15743     2.12771   25.80234   59.59259
      O    O15744    11.36955   27.45674   56.81912
      H    H15745    11.74604   26.58393   56.70649
      H    H15746    11.27150   27.79261   55.92817
      O    O15747     5.50005   25.82931   52.28087
      H    H15748     5.60673   26.72968   52.58774
      H    H15749     4.58929   25.78110   51.99033
      O    O15750    15.15197   24.95179   53.75196
      H    H15751    15.97293   24.46144   53.79451
      H    H15752    15.18537   25.54155   54.50514
      O    O15753     3.14837   27.75121   57.52613
      H    H15754     3.82938   28.01504   58.14487
      H    H15755     2.83318   26.91129   57.85993
      O    O15756     7.34083   28.79794   56.61339
      H    H15757     7.84865   29.29604   57.25389
      H    H15758     7.87215   28.02146   56.43732
      O    O15759    19.44192   26.96846   60.31632
      H    H15760    18.73714   27.35663   59.79783
      H    H15761    19.70771   27.66349   60.91841
      O    O15762     5.62444   23.43780   60.87973
      H    H15763     5.62628   23.95504   60.07432
      H    H15764     4.79487   22.96082   60.85672
      O    O15765    12.01155   33.54973   52.37872
      H    H15766    11.39327   34.01467   51.81499
      H    H15767    12.52387   34.24248   52.79567
      O    O15768     6.87472   33.07732   59.05708
      H    H15769     6.54166   33.70421   59.69918
      H    H15770     7.05139   33.60350   58.27724
      O    O15771    15.38811   26.89182   56.52471
      H    H15772    14.68367   27.18031   57.10502
      H    H15773    15.74933   27.70184   56.16467
      O    O15774     5.30597   25.14879   58.88677
      H    H15775     5.64765   25.99300   58.59216
      H    H15776     4.36755   25.29717   59.00331
      O    O15777     6.08663   35.04540   60.87200
      H    H15778     6.70403   35.72050   60.59044
      H    H15779     5.22594   35.45419   60.78075
      O    O15780     1.37987   34.23538   49.75268
      H    H15781     1.00266   34.72409   49.02117
      H    H15782     1.63717   34.90791   50.38333
      O    O15783    17.00439   36.50934   58.78746
      H    H15784    16.32074   37.17925   58.77913
      H    H15785    17.54382   36.70740   58.02195
      O    O15786    18.45681   26.33730   56.91563
      H    H15787    17.50930   26.37120   57.04718
      H    H15788    18.78180   27.15120   57.30057
      O    O15789     8.98876   22.63702   55.21123
      H    H15790     9.29626   22.08171   54.49478
      H    H15791     8.05883   22.77147   55.02853
      O    O15792    14.54027   38.35375   57.50198
      H    H15793    14.55298   37.94998   56.63420
      H    H15794    13.98779   39.12848   57.39812
      O    O15795    15.83481   35.07537   52.59099
      H    H15796    15.72444   34.13281   52.71594
      H    H15797    15.83163   35.43694   53.47727
      O    O15798    13.93881   33.25673   58.83024
      H    H15799    14.35569   33.04275   57.99558
      H    H15800    14.66279   33.51401   59.40110
      O    O15801    11.37684   30.70190   51.94724
      H    H15802    10.44976   30.63564   52.17609
      H    H15803    11.52932   31.63992   51.83277
      O    O15804    11.36374   26.97360   48.94396
      H    H15805    10.42411   27.13500   49.02921
      H    H15806    11.68207   27.69217   48.39756
      O    O15807    17.88502   31.65546   58.92186
      H    H15808    17.05688   31.72477   58.44688
      H    H15809    18.48007   32.24089   58.45345
      O    O15810    15.40656   32.26393   52.45077
      H    H15811    14.78781   31.92589   51.80340
      H    H15812    15.38901   31.61991   53.15869
      O    O15813    14.84922   28.44239   59.86735
      H    H15814    14.43634   29.26776   60.12135
      H    H15815    14.11682   27.85689   59.67499
      O    O15816     6.98250   31.22838   54.72922
      H    H15817     6.57820   30.51610   54.23381
      H    H15818     7.06881   30.88370   55.61802
      O    O15819     7.45067   34.91513   56.89314
      H    H15820     7.15350   34.30968   56.21392
      H    H15821     8.40065   34.95287   56.78207
      O    O15822     5.69536   28.00270   58.50912
      H    H15823     6.24682   28.11223   57.73445
      H    H15824     6.20971   28.37646   59.22464
      O    O15825    15.53923   38.48832   60.55545
      H    H15826    15.06229   39.29554   60.36271
      H    H15827    14.85541   37.83615   60.70807
      O    O15828     6.54251   34.65330   63.54392
      H    H15829     5.64537   34.87730   63.79126
      H    H15830     6.56780   34.77680   62.59506
      O    O15831    13.58303   31.50262   49.45804
      H    H15832    14.02236   30.66486   49.31183
      H    H15833    14.29588   32.13556   49.54446
      O    O15834     5.36963   31.52464   62.11965
      H    H15835     5.23041   32.39692   62.48839
      H    H15836     4.48777   31.18192   61.97445
      O    O15837    11.69257   36.44222   53.42617
      H    H15838    12.13216   37.18466   53.01171
      H    H15839    11.63126   36.68488   54.35006
      O    O15840     7.16767   37.46681   64.32817
      H    H15841     7.13921   37.87110   63.46101
      H    H15842     7.00417   36.53784   64.16533
      O    O15843     3.68296   30.12288   52.22988
      H    H15844     3.56272   30.84909   51.61801
      H    H15845     3.37305   29.35317   51.75267
      O    O15846    19.11915   38.24952   65.62459
      H    H15847    19.59512   38.72780   66.30349
      H    H15848    19.73987   38.18126   64.89914
      O    O15849     1.32150   33.29439   58.03675
      H    H15850     1.39954   33.42927   57.09232
      H    H15851     1.93567   32.58598   58.22956
      O    O15852     2.56626   34.99441   54.44736
      H    H15853     2.15907   35.13587   53.59272
      H    H15854     3.45756   34.71043   54.24448
      O    O15855    18.52248   35.44080   62.78459
      H    H15856    18.64878   35.20199   61.86631
      H    H15857    18.56461   34.60925   63.25680
      O    O15858    12.38415   39.14360   61.35407
      H    H15859    12.89862   39.05440   62.15631
      H    H15860    11.54106   39.48957   61.64686
      O    O15861    14.35959   39.42913   50.78247
      H    H15862    14.19970   39.13943   51.68065
      H    H15863    14.19426   38.65315   50.24699
      O    O15864     6.83843   39.20899   52.55963
      H    H15865     6.66268   38.29254   52.34641
      H    H15866     5.98400   39.56772   52.79941
      O    O15867    14.06220   36.93789   49.34227
      H    H15868    13.36872   36.93562   48.68250
      H    H15869    14.80449   36.51382   48.91169
      O    O15870    13.62720   38.56416   53.41712
      H    H15871    14.08289   37.78310   53.73098
      H    H15872    13.96645   39.27484   53.96124
      O    O15873    18.37488   27.49405   63.74956
      H    H15874    17.75930   28.00201   63.22111
      H    H15875    18.05452   26.59388   63.69216
      O    O15876     1.37745   34.33581   60.57619
      H    H15877     1.54056   33.86634   59.75813
      H    H15878     1.84270   33.82816   61.24108
      O    O15879     6.14933   23.46638   55.61225
      H    H15880     5.70614   24.24734   55.28070
      H    H15881     6.70783   23.78937   56.31934
      O    O15882    10.43631   26.33324   61.21578
      H    H15883     9.97425   26.54154   62.02777
      H    H15884    10.03412   25.51917   60.91285
      O    O15885    15.43676   27.55413   62.34545
      H    H15886    14.58612   27.25471   62.66635
      H    H15887    15.27694   27.79833   61.43383
      O    O15888    12.53173   29.05431   64.44533
      H    H15889    12.85707   28.22068   64.10555
      H    H15890    13.31976   29.57716   64.59316
      O    O15891     9.26521   23.08745   50.49283
      H    H15892     8.64063   23.08344   51.21816
      H    H15893     9.17822   22.22055   50.09643
      O    O15894     8.18692   24.01112   57.47121
      H    H15895     8.48415   24.91740   57.39041
      H    H15896     8.73547   23.52299   56.85717
      O    O15897     5.94075   28.58974   53.34037
      H    H15898     5.71484   28.37346   54.24504
      H    H15899     5.16000   29.02259   52.99497
      O    O15900    13.17053   28.59608   51.93944
      H    H15901    12.57142   29.31966   51.75580
      H    H15902    13.71849   28.53376   51.15708
      O    O15903     8.38067   29.48830   64.00640
      H    H15904     8.28503   28.54777   63.85644
      H    H15905     9.22387   29.70981   63.61121
      O    O15906    11.77701   27.23243   53.96977
      H    H15907    12.16997   27.54965   53.15664
      H    H15908    12.13870   26.35362   54.08422
      O    O15909     3.51173   25.89967   62.15978
      H    H15910     3.11806   26.74719   62.36706
      H    H15911     2.82357   25.26230   62.35064
      O    O15912    10.08623   25.98316   65.22945
      H    H15913     9.39606   25.79038   65.86406
      H    H15914    10.82946   26.26663   65.76188
      O    O15915     0.81343   23.82251   56.19279
      H    H15916     0.52474   24.39280   56.90528
      H    H15917     1.55801   23.34296   56.55591
      O    O15918     1.00045   27.76452   47.40306
      H    H15919     0.91792   28.70760   47.54456
      H    H15920     0.64876   27.62201   46.52429
      O    O15921    12.36253   29.82301   58.06484
      H    H15922    11.63064   30.33169   58.41385
      H    H15923    11.96496   29.00600   57.76372
      O    O15924     8.80027   26.49843   56.47009
      H    H15925     8.80387   26.05742   55.62055
      H    H15926     9.69538   26.82016   56.57728
      O    O15927     4.65050   26.38108   55.42951
      H    H15928     4.31051   26.85860   56.18622
      H    H15929     3.88824   25.92759   55.06962
      O    O15930     8.86228   27.49963   49.46077
      H    H15931     8.98356   27.45828   50.40935
      H    H15932     8.47713   28.36205   49.30544
      O    O15933    12.82512   25.27637   57.47714
      H    H15934    12.84239   25.72724   58.32132
      H    H15935    12.57668   24.37694   57.69048
      O    O15936     7.87443   29.80975   48.85910
      H    H15937     7.30612   29.36157   48.23269
      H    H15938     8.58333   30.16903   48.32561
      O    O15939    16.25219   22.68959   63.31578
      H    H15940    16.57677   21.95856   63.84157
      H    H15941    16.28784   22.37096   62.41388
      O    O15942     2.95135   33.71095   62.73577
      H    H15943     2.56683   33.07032   63.33407
      H    H15944     3.26257   34.41456   63.30525
      O    O15945     9.10106   30.55860   58.21663
      H    H15946     9.46808   30.08446   58.96277
      H    H15947     8.91157   31.43276   58.55747
      O    O15948     1.96511   25.30297   54.34598
      H    H15949     1.67980   24.93854   55.18384
      H    H15950     1.90300   24.57102   53.73230
      O    O15951     6.89100   29.59947   60.53506
      H    H15952     6.58671   30.47867   60.76009
      H    H15953     7.84565   29.65945   60.57080
      O    O15954     5.41918   33.80557   51.13174
      H    H15955     4.64541   33.26533   50.97161
      H    H15956     6.14864   33.28623   50.79352
      O    O15957    16.17798   32.80210   56.92438
      H    H15958    16.89789   33.29763   56.53399
      H    H15959    15.97616   32.12389   56.27977
      O    O15960    11.63897   24.19590   51.06732
      H    H15961    10.82543   23.69722   50.99185
      H    H15962    11.44517   25.03572   50.65095
      O    O15963    11.55986   32.87301   62.81128
      H    H15964    11.49359   31.95258   62.55704
      H    H15965    10.93037   32.97055   63.52574
      O    O15966     5.46292   33.47361   54.76962
      H    H15967     5.98079   32.67043   54.71531
      H    H15968     5.01132   33.41152   55.61130
      O    O15969    10.34987   34.74023   50.04235
      H    H15970    10.69144   35.48446   49.54668
      H    H15971     9.52114   35.05335   50.40483
      O    O15972     2.94737   30.43974   61.68219
      H    H15973     2.58887   31.10513   62.26953
      H    H15974     2.65283   29.60810   62.05345
      O    O15975     6.14869   30.89817   64.56615
      H    H15976     5.84870   31.04388   63.66893
      H    H15977     6.91981   30.33870   64.47349
      O    O15978    11.49153   35.69507   62.56166
      H    H15979    11.50598   34.76316   62.34355
      H    H15980    10.78404   35.78104   63.20064
      O    O15981    16.62524   29.87905   48.83152
      H    H15982    16.54161   30.31047   47.98116
      H    H15983    17.34466   30.33888   49.26420
      O    O15984    17.70265   32.33580   61.90852
      H    H15985    16.97747   32.92868   61.71146
      H    H15986    18.23020   32.32815   61.10985
      O    O15987    17.65396   36.73327   51.55973
      H    H15988    17.01158   36.07884   51.83411
      H    H15989    17.26703   37.13878   50.78380
      O    O15990    13.23261   34.06182   55.40690
      H    H15991    13.58499   33.46463   54.74704
      H    H15992    12.34884   33.73624   55.57773
      O    O15993     9.31894   34.82159   52.81394
      H    H15994    10.00605   35.36851   53.19470
      H    H15995     8.53218   35.36566   52.84890
      O    O15996     1.45818   30.43887   48.30565
      H    H15997     2.32766   30.72135   48.58924
      H    H15998     0.96721   31.25246   48.19053
      O    O15999     8.62166   31.82619   52.42648
      H    H16000     9.07794   32.63671   52.65250
      H    H16001     8.27048   31.50850   53.25833
      O    O16002    10.92492   37.33682   59.65571
      H    H16003    11.56914   37.54276   60.33305
      H    H16004    11.28786   36.57566   59.20279
      O    O16005     4.52284   22.16995   52.89873
      H    H16006     4.39430   22.16174   53.84722
      H    H16007     3.69904   22.50826   52.54783
      O    O16008    12.19813   35.34006   58.37345
      H    H16009    12.84035   34.63937   58.48667
      H    H16010    12.72306   36.11990   58.19314
      O    O16011    16.04370   35.62492   48.09737
      H    H16012    15.81746   34.90796   48.68983
      H    H16013    15.65332   35.37616   47.25954
      O    O16014    13.97189   36.13955   61.57706
      H    H16015    14.30751   36.72622   62.25485
      H    H16016    13.05192   36.00882   61.80684
      O    O16017     1.82530   39.65161   48.87181
      H    H16018     2.18507   40.25054   48.21754
      H    H16019     1.68454   40.19760   49.64532
      O    O16020     1.52223   23.92907   62.35940
      H    H16021     0.80808   24.12876   62.96466
      H    H16022     1.94173   23.15302   62.73088
      O    O16023    15.62533   33.54211   49.75878
      H    H16024    15.33750   34.00338   50.54657
      H    H16025    16.42054   33.08189   50.02721
      O    O16026     1.80949   37.91709   63.34605
      H    H16027     1.91860   36.97657   63.20559
      H    H16028     1.15755   38.18257   62.69743
      O    O16029     9.80075   36.18868   64.74587
      H    H16030     9.48044   35.46961   65.29044
      H    H16031     9.12658   36.86419   64.81947
      O    O16032     7.84217   37.03473   49.68918
      H    H16033     7.83318   37.76770   49.07363
      H    H16034     6.92200   36.78788   49.78188
      O    O16035     3.44283   32.25622   50.43386
      H    H16036     2.83562   32.99611   50.44339
      H    H16037     3.91776   32.34615   49.60768
      O    O16038    13.01611   26.42130   60.10955
      H    H16039    13.38419   25.60082   60.43750
      H    H16040    12.15593   26.48149   60.52511
      O    O16041    16.38231   25.37699   50.91830
      H    H16042    15.75363   25.48156   50.20413
      H    H16043    15.88750   25.59667   51.70769
      O    O16044    10.82813   37.09755   48.35170
      H    H16045    10.92932   36.89395   47.42190
      H    H16046     9.92830   36.84338   48.55648
      O    O16047     8.35071   27.65559   52.33409
      H    H16048     7.64233   28.12422   52.77545
      H    H16049     8.63516   26.99779   52.96861
      O    O16050     9.97631   29.07526   60.33334
      H    H16051    10.47483   29.54984   60.99853
      H    H16052    10.11860   28.15161   60.54035
      O    O16053    12.38226   24.38065   53.77367
      H    H16054    12.25904   24.39927   52.82462
      H    H16055    13.33071   24.42855   53.89351
      O    O16056     9.46994   39.61618   53.04647
      H    H16057     9.72409   39.57832   52.12440
      H    H16058     8.52118   39.48952   53.03929
      O    O16059     6.55422   25.96409   49.70916
      H    H16060     7.40327   26.40111   49.64318
      H    H16061     6.18734   26.27612   50.53637
      O    O16062    17.18299   25.29205   61.17618
      H    H16063    16.68035   26.03259   61.51556
      H    H16064    17.99866   25.68045   60.85986
      O    O16065    15.47519   30.53537   54.62232
      H    H16066    14.53421   30.55039   54.79709
      H    H16067    15.78960   29.74897   55.06835
      O    O16068     5.45336   32.21733   48.18271
      H    H16069     6.21969   32.10547   48.74526
      H    H16070     5.53083   31.52113   47.53039
      O    O16071     4.14803   29.64984   48.86600
      H    H16072     4.22839   28.70259   48.97774
      H    H16073     5.04001   29.98053   48.97207
      O    O16074    17.47775   37.70626   56.29774
      H    H16075    17.60249   38.52937   56.77013
      H    H16076    18.34431   37.49533   55.95016
      O    O16077     4.94951   39.79938   55.96946
      H    H16078     5.68575   39.25092   56.24031
      H    H16079     5.33360   40.66498   55.83006
      O    O16080     1.83405   35.86673   51.84361
      H    H16081     0.90803   36.10885   51.83415
      H    H16082     2.29970   36.69416   51.72208
      O    O16083     3.95533   38.98398   65.15802
      H    H16084     4.75661   39.30519   65.57156
      H    H16085     3.44052   38.62354   65.88001
      O    O16086     8.05974   38.97241   47.79201
      H    H16087     8.85260   39.26129   47.34019
      H    H16088     7.54017   38.54162   47.11326
      O    O16089    12.79180   35.09197   65.10556
      H    H16090    12.18561   35.11513   64.36513
      H    H16091    12.48721   34.36027   65.64228
      O    O16092    14.22183   38.82000   63.71650
      H    H16093    15.17401   38.73580   63.66652
      H    H16094    14.07466   39.48417   64.38988
      O    O16095    17.11275   38.19942   49.21569
      H    H16096    16.82690   37.78593   48.40111
      H    H16097    16.91471   39.12819   49.09574
      O    O16098     1.67511   31.47133   64.10162
      H    H16099     2.17902   30.89206   64.67324
      H    H16100     0.93586   31.75535   64.63926
      O    O16101     8.57748   34.19275   47.65625
      H    H16102     8.47254   33.57798   48.38239
      H    H16103     8.40990   33.66934   46.87255
      O    O16104     8.72891   32.87843   63.63517
      H    H16105     7.96348   33.44693   63.55064
      H    H16106     8.91050   32.58605   62.74200
      O    O16107    11.81775   33.25475   48.26045
      H    H16108    11.26876   33.70168   48.90472
      H    H16109    12.43968   32.74968   48.78422
      O    O16110    15.87124   34.60896   64.19267
      H    H16111    16.61219   34.94654   63.68942
      H    H16112    15.10851   34.77817   63.63965
      O    O16113     3.70742   29.61429   64.99663
      H    H16114     3.74796   29.31568   65.90515
      H    H16115     4.56197   30.01505   64.83738
      O    O16116     7.48526   32.21384   50.15698
      H    H16117     7.90690   32.04783   51.00012
      H    H16118     7.61035   31.40387   49.66249
      O    O16119     5.64800   28.19350   62.96408
      H    H16120     5.11765   27.70259   62.33641
      H    H16121     6.31681   28.62192   62.42987
      O    O16122     9.99803   31.23760   47.40469
      H    H16123    10.51859   30.52251   47.03880
      H    H16124    10.64487   31.87619   47.70474
      O    O16125    14.54581   32.66044   62.72820
      H    H16126    14.95991   32.81495   63.57724
      H    H16127    13.61091   32.78597   62.89077
      O    O16128    15.01803   30.00006   64.73211
      H    H16129    15.60010   29.24529   64.64416
      H    H16130    15.19420   30.53080   63.95526
      O    O16131     6.13523   25.15974   63.04381
      H    H16132     6.04092   24.54181   62.31889
      H    H16133     5.55497   25.88636   62.81680
      O    O16134     8.90138   23.71706   60.07654
      H    H16135     8.45311   23.73949   59.23110
      H    H16136     8.26790   23.31896   60.67357
      O    O16137     9.30733   32.61249   60.69779
      H    H16138     9.72614   33.45577   60.52541
      H    H16139     8.38820   32.74970   60.46847
      O    O16140    11.64372   30.34411   62.08157
      H    H16141    11.76334   29.74822   62.82106
      H    H16142    12.50312   30.38108   61.66170
      O    O16143    13.98251   30.89783   60.65782
      H    H16144    13.45603   31.42209   60.05434
      H    H16145    14.32565   31.53057   61.28880
      O    O16146     6.38115   28.28717   47.10279
      H    H16147     6.18006   27.42390   47.46413
      H    H16148     6.21036   28.20050   46.16495
      O    O16149     7.15807   38.91779   61.81356
      H    H16150     6.62018   39.64240   61.49443
      H    H16151     7.41147   38.44083   61.02330
      O    O16152     8.41060   26.88625   63.33915
      H    H16153     9.00057   26.57783   64.02694
      H    H16154     7.59262   26.41422   63.49514
      O    O16155    13.22994   26.50283   63.57246
      H    H16156    12.54149   25.84098   63.50746
      H    H16157    13.95054   26.05665   64.01730
      O    O16158     5.17943   25.38723   47.09058
      H    H16159     5.48202   25.39397   46.18250
      H    H16160     5.91889   25.03701   47.58735
      O    O16161    10.01430   40.15291   62.07223
      H    H16162     9.94017   41.05643   62.37946
      H    H16163     9.11218   39.83410   62.04443
      O    O16164     8.39792   24.33069   48.07620
      H    H16165     8.05012   23.65309   47.49645
      H    H16166     8.59920   23.86964   48.89054
      O    O16167    10.56283   39.31877   49.69486
      H    H16168    11.45791   39.65726   49.71674
      H    H16169    10.59459   38.59671   49.06729
      O    O16170     4.20244   34.69147   47.92356
      H    H16171     4.63993   35.23444   48.57932
      H    H16172     4.68722   33.86617   47.93320
      O    O16173     1.41702   37.48037   55.37559
      H    H16174     1.74733   36.61248   55.14345
      H    H16175     1.84612   37.68623   56.20608
      O    O16176     6.01322   35.81127   53.03579
      H    H16177     5.71277   35.68777   53.93618
      H    H16178     5.90697   34.95213   52.62736
      O    O16179     1.90605   38.34743   58.11375
      H    H16180     1.46914   38.52751   58.94617
      H    H16181     2.47381   39.10489   57.97192
      O    O16182    17.54226   37.84913   62.40148
      H    H16183    16.94246   37.90839   61.65787
      H    H16184    17.67165   36.90963   62.53117
      O    O16185    18.78241   35.59091   47.73845
      H    H16186    17.95170   35.65858   48.20918
      H    H16187    18.95959   36.48133   47.43514
      O    O16188    18.23805   32.33566   50.24187
      H    H16189    18.99995   32.90533   50.34784
      H    H16190    18.25349   31.76838   51.01270
      O    O16191     1.73849   30.85946   54.47264
      H    H16192     1.08337   30.59062   53.82861
      H    H16193     2.57628   30.74990   54.02284
      O    O16194    19.24405   33.19067   55.08607
      H    H16195    19.61493   32.40740   54.67966
      H    H16196    19.88424   33.87958   54.90780
      O    O16197    16.22743   34.57433   60.49910
      H    H16198    15.41341   35.00405   60.76168
      H    H16199    16.63485   35.18617   59.88600
      O    O16200    18.28997   32.62910   47.39913
      H    H16201    18.56486   33.53699   47.27105
      H    H16202    18.10105   32.56535   48.33532
      O    O16203    18.18651   30.56600   52.39207
      H    H16204    17.81087   29.79879   51.96020
      H    H16205    17.45682   30.94827   52.87956
      O    O16206     2.77608   31.24471   59.01297
      H    H16207     3.14339   31.15745   59.89258
      H    H16208     2.20716   30.48137   58.91366
      O    O16209    17.57647   29.71315   62.02602
      H    H16210    17.34508   29.48443   61.12582
      H    H16211    17.83692   30.63311   61.98051
      O    O16212     2.32768   28.15562   62.91882
      H    H16213     1.43329   28.12230   63.25819
      H    H16214     2.86744   28.35430   63.68394
      O    O16215    16.01527   24.93879   64.80399
      H    H16216    16.89229   24.94713   65.18739
      H    H16217    16.02736   24.20188   64.19323
      O    O16218     0.95230   28.06935   50.41517
      H    H16219     0.04870   28.33237   50.24034
      H    H16220     1.43636   28.34047   49.63517
      O    O16221    17.46160   28.79175   55.69279
      H    H16222    17.98535   28.29801   55.06181
      H    H16223    18.04754   28.92678   56.43755
      O    O16224    17.64057   28.87573   59.21475
      H    H16225    16.69084   28.84209   59.32925
      H    H16226    17.82187   29.78575   58.97972
      O    O16227     3.49502   27.12590   48.32461
      H    H16228     4.20419   26.70422   47.83934
      H    H16229     2.77901   27.19343   47.69295
      O    O16230     3.14243   23.17984   47.36488
      H    H16231     3.86525   23.72073   47.68300
      H    H16232     3.41489   22.90618   46.48903
      O    O16233    16.95160   28.04908   51.63203
      H    H16234    17.44751   27.81617   52.41692
      H    H16235    16.75321   27.21027   51.21580
      O    O16236     2.83165   22.43045   57.26714
      H    H16237     3.47927   21.88019   56.82665
      H    H16238     3.25184   22.68477   58.08872
      O    O16239    18.38031   26.68518   54.16580
      H    H16240    18.27024   26.53078   55.10403
      H    H16241    19.14107   26.15727   53.92334
      O    O16242    16.72689   22.62459   60.62410
      H    H16243    17.36411   23.23800   60.99002
      H    H16244    16.87438   22.66066   59.67902
      O    O16245    19.34319   25.28704   50.03209
      H    H16246    18.54834   25.22155   50.56138
      H    H16247    19.54752   26.22210   50.02062
      O    O16248    16.28503   39.32619   54.02593
      H    H16249    16.88094   39.00465   53.34937
      H    H16250    16.54285   38.85337   54.81725
      O    O16251     2.58485   22.58602   60.00967
      H    H16252     2.23633   23.04240   60.77549
      H    H16253     2.25362   21.69173   60.09191
      O    O16254     4.19129   35.75798   64.17499
      H    H16255     4.14825   35.38727   65.05643
      H    H16256     4.32239   36.69574   64.31517
      O    O16257     7.89189   37.31394   59.77596
      H    H16258     7.65103   37.58140   58.88901
      H    H16259     8.83216   37.48451   59.83105
      O    O16260    10.09733   23.77721   63.53161
      H    H16261    10.03622   24.36939   64.28115
      H    H16262    11.03737   23.66981   63.38664
      O    O16263    12.73479   23.43422   63.17084
      H    H16264    13.34883   23.75214   62.50895
      H    H16265    13.27975   22.94907   63.79043
      O    O16266    19.15231   39.33338   60.57702
      H    H16267    18.65814   39.73027   59.85974
      H    H16268    18.54364   38.70830   60.97075
      O    O16269     3.25692   22.11364   63.28475
      H    H16270     3.80522   21.93245   62.52136
      H    H16271     3.32245   21.32305   63.82038
      O    O16272     4.03009   38.70421   61.29477
      H    H16273     3.43612   38.57268   62.03377
      H    H16274     4.02248   37.86802   60.82898
      O    O16275    13.47559   21.99743   59.49777
      H    H16276    12.60158   22.33094   59.29506
      H    H16277    13.36667   21.52475   60.32296
      O    O16278    14.38279   24.20452   60.88194
      H    H16279    14.05413   23.38969   60.50211
      H    H16280    15.33102   24.16150   60.75851
      O    O16281    16.83625   39.97572   57.85570
      H    H16282    16.37655   40.72730   57.48150
      H    H16283    16.20750   39.25637   57.79718
      O    O16284     3.66132   36.07004   60.24557
      H    H16285     2.93472   35.45057   60.17817
      H    H16286     3.72223   36.46411   59.37538
      O    O16287     7.26583   38.28454   57.03051
      H    H16288     7.78233   37.67328   56.50534
      H    H16289     7.91556   38.78742   57.52161
      O    O16290    10.00538   39.17539   57.85741
      H    H16291    10.29316   38.92082   56.98071
      H    H16292    10.51770   38.62313   58.44797
      O    O16293    11.22308   22.91441   58.43706
      H    H16294    10.44026   23.38896   58.71674
      H    H16295    10.92937   22.00990   58.32838
      O    O16296    15.77518   23.61672   56.48197
      H    H16297    16.21599   23.56123   55.63413
      H    H16298    15.50594   24.53252   56.55299
      O    O16299    17.63904   23.24825   54.49285
      H    H16300    17.57788   22.30437   54.34595
      H    H16301    18.41824   23.35626   55.03820
      O    O16302     1.94432   39.38748   53.45525
      H    H16303     1.77652   38.75455   54.15344
      H    H16304     1.07777   39.59342   53.10467
      O    O16305     2.56712   23.21916   50.95843
      H    H16306     3.32505   23.33205   50.38484
      H    H16307     2.10483   24.05608   50.91278
      O    O16308     9.10850   25.33309   53.94866
      H    H16309     8.29595   24.95878   53.60825
      H    H16310     9.61266   24.57760   54.25078
      O    O16311    13.61100   21.99733   55.18697
      H    H16312    14.21393   22.56935   55.66182
      H    H16313    12.87030   22.56128   54.96436
      O    O16314     3.55059   38.08081   50.90026
      H    H16315     3.02535   38.46161   50.19646
      H    H16316     3.47504   38.70588   51.62123
      O    O16317     4.93963   23.74557   49.49863
      H    H16318     5.46891   22.95855   49.36942
      H    H16319     5.57246   24.42469   49.73218
      O    O16320     7.13342   23.48308   52.55317
      H    H16321     6.50369   22.78181   52.72018
      H    H16322     6.59393   24.24349   52.33648
      O    O16323    10.07261   40.09700   65.22423
      H    H16324    10.99934   39.86143   65.26783
      H    H16325    10.05765   40.92420   64.74283
      O    O16326    18.30712   39.63956   52.22165
      H    H16327    18.48234   38.95333   51.57775
      H    H16328    17.60927   40.16427   51.82932
      O    O16329     7.25897   22.76148   64.98842
      H    H16330     6.97740   23.26484   64.22450
      H    H16331     7.64094   21.96365   64.62263
      O    O16332     6.14988   40.02904   49.77519
      H    H16333     6.88176   39.74497   49.22757
      H    H16334     6.40925   39.79037   50.66512
      O    O16335     5.31136   36.14552   49.77982
      H    H16336     4.68225   36.61403   50.32840
      H    H16337     5.42614   35.30044   50.21444
      O    O16338    13.86052   22.17684   65.56646
      H    H16339    13.74706   22.49630   66.46162
      H    H16340    14.67749   22.57809   65.27019
      O    O16341    16.64037   39.32399   65.04833
      H    H16342    17.43290   38.82891   64.84093
      H    H16343    16.93368   40.00300   65.65589
      O    O16344    31.54068   30.19608   54.70429
      H    H16345    31.46009   29.28154   54.43346
      H    H16346    31.12713   30.69279   53.99826
      O    O16347    29.67249   31.97399   56.58521
      H    H16348    28.89670   31.49403   56.87507
      H    H16349    30.32378   31.29455   56.41083
      O    O16350    23.68907   32.28597   57.46279
      H    H16351    22.85756   32.03084   57.86244
      H    H16352    24.29717   32.35704   58.19858
      O    O16353    33.69323   36.38000   55.36513
      H    H16354    33.23138   35.60873   55.69384
      H    H16355    34.50579   36.40661   55.87037
      O    O16356    23.66920   36.31998   57.65859
      H    H16357    23.97200   35.42975   57.47961
      H    H16358    24.41356   36.87700   57.43082
      O    O16359    22.09827   27.24616   51.24703
      H    H16360    21.20994   27.58775   51.14502
      H    H16361    22.38238   27.04619   50.35511
      O    O16362    20.06157   29.84672   57.13100
      H    H16363    20.63318   29.07894   57.13136
      H    H16364    20.06172   30.14560   56.22166
      O    O16365    29.91956   38.66581   54.98553
      H    H16366    29.30071   39.12156   54.41497
      H    H16367    30.77474   38.82095   54.58450
      O    O16368    29.11339   34.64970   56.59223
      H    H16369    29.04421   33.70870   56.43114
      H    H16370    29.87537   34.73985   57.16449
      O    O16371    21.30405   25.25516   58.91789
      H    H16372    21.12434   24.35773   59.19817
      H    H16373    20.90206   25.80234   59.59259
      O    O16374    30.14390   27.45674   56.81912
      H    H16375    30.52039   26.58393   56.70649
      H    H16376    30.04585   27.79261   55.92817
      O    O16377    24.27440   25.82931   52.28087
      H    H16378    24.38108   26.72968   52.58774
      H    H16379    23.36364   25.78110   51.99033
      O    O16380    33.92632   24.95179   53.75196
      H    H16381    34.74728   24.46144   53.79451
      H    H16382    33.95972   25.54155   54.50514
      O    O16383    21.92272   27.75121   57.52613
      H    H16384    22.60373   28.01504   58.14487
      H    H16385    21.60753   26.91129   57.85993
      O    O16386    26.11518   28.79794   56.61339
      H    H16387    26.62300   29.29604   57.25389
      H    H16388    26.64650   28.02146   56.43732
      O    O16389    38.21627   26.96846   60.31632
      H    H16390    37.51149   27.35663   59.79783
      H    H16391    38.48206   27.66349   60.91841
      O    O16392    24.39879   23.43780   60.87973
      H    H16393    24.40063   23.95504   60.07432
      H    H16394    23.56922   22.96082   60.85672
      O    O16395    30.78590   33.54973   52.37872
      H    H16396    30.16762   34.01467   51.81499
      H    H16397    31.29822   34.24248   52.79567
      O    O16398    25.64907   33.07732   59.05708
      H    H16399    25.31601   33.70421   59.69918
      H    H16400    25.82574   33.60350   58.27724
      O    O16401    34.16246   26.89182   56.52471
      H    H16402    33.45802   27.18031   57.10502
      H    H16403    34.52368   27.70184   56.16467
      O    O16404    24.08032   25.14879   58.88677
      H    H16405    24.42200   25.99300   58.59216
      H    H16406    23.14190   25.29717   59.00331
      O    O16407    24.86098   35.04540   60.87200
      H    H16408    25.47838   35.72050   60.59044
      H    H16409    24.00029   35.45419   60.78075
      O    O16410    20.15422   34.23538   49.75268
      H    H16411    19.77701   34.72409   49.02117
      H    H16412    20.41152   34.90791   50.38333
      O    O16413    35.77874   36.50934   58.78746
      H    H16414    35.09509   37.17925   58.77913
      H    H16415    36.31817   36.70740   58.02195
      O    O16416    37.23116   26.33730   56.91563
      H    H16417    36.28365   26.37120   57.04718
      H    H16418    37.55615   27.15120   57.30057
      O    O16419    27.76311   22.63702   55.21123
      H    H16420    28.07061   22.08171   54.49478
      H    H16421    26.83318   22.77147   55.02853
      O    O16422    33.31462   38.35375   57.50198
      H    H16423    33.32733   37.94998   56.63420
      H    H16424    32.76214   39.12848   57.39812
      O    O16425    34.60916   35.07537   52.59099
      H    H16426    34.49879   34.13281   52.71594
      H    H16427    34.60598   35.43694   53.47727
      O    O16428    32.71316   33.25673   58.83024
      H    H16429    33.13004   33.04275   57.99558
      H    H16430    33.43714   33.51401   59.40110
      O    O16431    30.15119   30.70190   51.94724
      H    H16432    29.22411   30.63564   52.17609
      H    H16433    30.30367   31.63992   51.83277
      O    O16434    30.13809   26.97360   48.94396
      H    H16435    29.19846   27.13500   49.02921
      H    H16436    30.45642   27.69217   48.39756
      O    O16437    36.65937   31.65546   58.92186
      H    H16438    35.83123   31.72477   58.44688
      H    H16439    37.25442   32.24089   58.45345
      O    O16440    34.18091   32.26393   52.45077
      H    H16441    33.56216   31.92589   51.80340
      H    H16442    34.16336   31.61991   53.15869
      O    O16443    33.62357   28.44239   59.86735
      H    H16444    33.21069   29.26776   60.12135
      H    H16445    32.89117   27.85689   59.67499
      O    O16446    25.75685   31.22838   54.72922
      H    H16447    25.35255   30.51610   54.23381
      H    H16448    25.84316   30.88370   55.61802
      O    O16449    26.22502   34.91513   56.89314
      H    H16450    25.92785   34.30968   56.21392
      H    H16451    27.17500   34.95287   56.78207
      O    O16452    24.46971   28.00270   58.50912
      H    H16453    25.02117   28.11223   57.73445
      H    H16454    24.98406   28.37646   59.22464
      O    O16455    34.31358   38.48832   60.55545
      H    H16456    33.83664   39.29554   60.36271
      H    H16457    33.62976   37.83615   60.70807
      O    O16458    25.31686   34.65330   63.54392
      H    H16459    24.41972   34.87730   63.79126
      H    H16460    25.34215   34.77680   62.59506
      O    O16461    32.35738   31.50262   49.45804
      H    H16462    32.79671   30.66486   49.31183
      H    H16463    33.07023   32.13556   49.54446
      O    O16464    24.14398   31.52464   62.11965
      H    H16465    24.00476   32.39692   62.48839
      H    H16466    23.26212   31.18192   61.97445
      O    O16467    30.46692   36.44222   53.42617
      H    H16468    30.90651   37.18466   53.01171
      H    H16469    30.40561   36.68488   54.35006
      O    O16470    25.94202   37.46681   64.32817
      H    H16471    25.91356   37.87110   63.46101
      H    H16472    25.77852   36.53784   64.16533
      O    O16473    35.93910   22.75690   47.77215
      H    H16474    35.62636   22.84958   48.67205
      H    H16475    36.70035   23.33500   47.72189
      O    O16476    22.45731   30.12288   52.22988
      H    H16477    22.33707   30.84909   51.61801
      H    H16478    22.14740   29.35317   51.75267
      O    O16479    37.89350   38.24952   65.62459
      H    H16480    38.36947   38.72780   66.30349
      H    H16481    38.51422   38.18126   64.89914
      O    O16482    20.09585   33.29439   58.03675
      H    H16483    20.17389   33.42927   57.09232
      H    H16484    20.71002   32.58598   58.22956
      O    O16485    21.34061   34.99441   54.44736
      H    H16486    20.93342   35.13587   53.59272
      H    H16487    22.23191   34.71043   54.24448
      O    O16488    37.29683   35.44080   62.78459
      H    H16489    37.42313   35.20199   61.86631
      H    H16490    37.33896   34.60925   63.25680
      O    O16491    31.15850   39.14360   61.35407
      H    H16492    31.67297   39.05440   62.15631
      H    H16493    30.31541   39.48957   61.64686
      O    O16494    33.13394   39.42913   50.78247
      H    H16495    32.97405   39.13943   51.68065
      H    H16496    32.96861   38.65315   50.24699
      O    O16497    25.61278   39.20899   52.55963
      H    H16498    25.43703   38.29254   52.34641
      H    H16499    24.75835   39.56772   52.79941
      O    O16500    32.83655   36.93789   49.34227
      H    H16501    32.14307   36.93562   48.68250
      H    H16502    33.57884   36.51382   48.91169
      O    O16503    32.40155   38.56416   53.41712
      H    H16504    32.85724   37.78310   53.73098
      H    H16505    32.74080   39.27484   53.96124
      O    O16506    37.14923   27.49405   63.74956
      H    H16507    36.53365   28.00201   63.22111
      H    H16508    36.82887   26.59388   63.69216
      O    O16509    20.15180   34.33581   60.57619
      H    H16510    20.31491   33.86634   59.75813
      H    H16511    20.61705   33.82816   61.24108
      O    O16512    24.92368   23.46638   55.61225
      H    H16513    24.48049   24.24734   55.28070
      H    H16514    25.48218   23.78937   56.31934
      O    O16515    29.21066   26.33324   61.21578
      H    H16516    28.74860   26.54154   62.02777
      H    H16517    28.80847   25.51917   60.91285
      O    O16518    34.21111   27.55413   62.34545
      H    H16519    33.36047   27.25471   62.66635
      H    H16520    34.05129   27.79833   61.43383
      O    O16521    31.30608   29.05431   64.44533
      H    H16522    31.63142   28.22068   64.10555
      H    H16523    32.09411   29.57716   64.59316
      O    O16524    28.03956   23.08745   50.49283
      H    H16525    27.41498   23.08344   51.21816
      H    H16526    27.95257   22.22055   50.09643
      O    O16527    26.96127   24.01112   57.47121
      H    H16528    27.25850   24.91740   57.39041
      H    H16529    27.50982   23.52299   56.85717
      O    O16530    24.71510   28.58974   53.34037
      H    H16531    24.48919   28.37346   54.24504
      H    H16532    23.93435   29.02259   52.99497
      O    O16533    31.94488   28.59608   51.93944
      H    H16534    31.34577   29.31966   51.75580
      H    H16535    32.49284   28.53376   51.15708
      O    O16536    27.15502   29.48830   64.00640
      H    H16537    27.05938   28.54777   63.85644
      H    H16538    27.99822   29.70981   63.61121
      O    O16539    30.55136   27.23243   53.96977
      H    H16540    30.94432   27.54965   53.15664
      H    H16541    30.91305   26.35362   54.08422
      O    O16542    22.28608   25.89967   62.15978
      H    H16543    21.89241   26.74719   62.36706
      H    H16544    21.59792   25.26230   62.35064
      O    O16545    28.86058   25.98316   65.22945
      H    H16546    28.17041   25.79038   65.86406
      H    H16547    29.60381   26.26663   65.76188
      O    O16548    19.58778   23.82251   56.19279
      H    H16549    19.29909   24.39280   56.90528
      H    H16550    20.33236   23.34296   56.55591
      O    O16551    19.77480   27.76452   47.40306
      H    H16552    19.69227   28.70760   47.54456
      H    H16553    19.42311   27.62201   46.52429
      O    O16554    31.13688   29.82301   58.06484
      H    H16555    30.40499   30.33169   58.41385
      H    H16556    30.73931   29.00600   57.76372
      O    O16557    27.57462   26.49843   56.47009
      H    H16558    27.57822   26.05742   55.62055
      H    H16559    28.46973   26.82016   56.57728
      O    O16560    23.42485   26.38108   55.42951
      H    H16561    23.08486   26.85860   56.18622
      H    H16562    22.66259   25.92759   55.06962
      O    O16563    27.63663   27.49963   49.46077
      H    H16564    27.75791   27.45828   50.40935
      H    H16565    27.25148   28.36205   49.30544
      O    O16566    31.59947   25.27637   57.47714
      H    H16567    31.61674   25.72724   58.32132
      H    H16568    31.35103   24.37694   57.69048
      O    O16569    26.64878   29.80975   48.85910
      H    H16570    26.08047   29.36157   48.23269
      H    H16571    27.35768   30.16903   48.32561
      O    O16572    35.02654   22.68959   63.31578
      H    H16573    35.35112   21.95856   63.84157
      H    H16574    35.06219   22.37096   62.41388
      O    O16575    21.72570   33.71095   62.73577
      H    H16576    21.34118   33.07032   63.33407
      H    H16577    22.03692   34.41456   63.30525
      O    O16578    27.87541   30.55860   58.21663
      H    H16579    28.24243   30.08446   58.96277
      H    H16580    27.68592   31.43276   58.55747
      O    O16581    20.73946   25.30297   54.34598
      H    H16582    20.45415   24.93854   55.18384
      H    H16583    20.67735   24.57102   53.73230
      O    O16584    25.66535   29.59947   60.53506
      H    H16585    25.36106   30.47867   60.76009
      H    H16586    26.62000   29.65945   60.57080
      O    O16587    24.19353   33.80557   51.13174
      H    H16588    23.41976   33.26533   50.97161
      H    H16589    24.92299   33.28623   50.79352
      O    O16590    34.95233   32.80210   56.92438
      H    H16591    35.67224   33.29763   56.53399
      H    H16592    34.75051   32.12389   56.27977
      O    O16593    30.41332   24.19590   51.06732
      H    H16594    29.59978   23.69722   50.99185
      H    H16595    30.21952   25.03572   50.65095
      O    O16596    30.33421   32.87301   62.81128
      H    H16597    30.26794   31.95258   62.55704
      H    H16598    29.70472   32.97055   63.52574
      O    O16599    33.12816   28.56786   49.36353
      H    H16600    34.01612   28.87959   49.18867
      H    H16601    33.09867   27.69509   48.97159
      O    O16602    24.23727   33.47361   54.76962
      H    H16603    24.75514   32.67043   54.71531
      H    H16604    23.78567   33.41152   55.61130
      O    O16605    29.12422   34.74023   50.04235
      H    H16606    29.46579   35.48446   49.54668
      H    H16607    28.29549   35.05335   50.40483
      O    O16608    21.72172   30.43974   61.68219
      H    H16609    21.36322   31.10513   62.26953
      H    H16610    21.42718   29.60810   62.05345
      O    O16611    24.92304   30.89817   64.56615
      H    H16612    24.62305   31.04388   63.66893
      H    H16613    25.69416   30.33870   64.47349
      O    O16614    30.26588   35.69507   62.56166
      H    H16615    30.28033   34.76316   62.34355
      H    H16616    29.55839   35.78104   63.20064
      O    O16617    35.39959   29.87905   48.83152
      H    H16618    35.31596   30.31047   47.98116
      H    H16619    36.11901   30.33888   49.26420
      O    O16620    36.47700   32.33580   61.90852
      H    H16621    35.75182   32.92868   61.71146
      H    H16622    37.00455   32.32815   61.10985
      O    O16623    36.42831   36.73327   51.55973
      H    H16624    35.78593   36.07884   51.83411
      H    H16625    36.04138   37.13878   50.78380
      O    O16626    32.00696   34.06182   55.40690
      H    H16627    32.35934   33.46463   54.74704
      H    H16628    31.12319   33.73624   55.57773
      O    O16629    28.09329   34.82159   52.81394
      H    H16630    28.78040   35.36851   53.19470
      H    H16631    27.30653   35.36566   52.84890
      O    O16632    20.23253   30.43887   48.30565
      H    H16633    21.10201   30.72135   48.58924
      H    H16634    19.74156   31.25246   48.19053
      O    O16635    27.39601   31.82619   52.42648
      H    H16636    27.85229   32.63671   52.65250
      H    H16637    27.04483   31.50850   53.25833
      O    O16638    29.69927   37.33682   59.65571
      H    H16639    30.34349   37.54276   60.33305
      H    H16640    30.06221   36.57566   59.20279
      O    O16641    23.29719   22.16995   52.89873
      H    H16642    23.16865   22.16174   53.84722
      H    H16643    22.47339   22.50826   52.54783
      O    O16644    30.97248   35.34006   58.37345
      H    H16645    31.61470   34.63937   58.48667
      H    H16646    31.49741   36.11990   58.19314
      O    O16647    34.81805   35.62492   48.09737
      H    H16648    34.59181   34.90796   48.68983
      H    H16649    34.42767   35.37616   47.25954
      O    O16650    32.74624   36.13955   61.57706
      H    H16651    33.08186   36.72622   62.25485
      H    H16652    31.82627   36.00882   61.80684
      O    O16653    20.59965   39.65161   48.87181
      H    H16654    20.95942   40.25054   48.21754
      H    H16655    20.45889   40.19760   49.64532
      O    O16656    20.29658   23.92907   62.35940
      H    H16657    19.58243   24.12876   62.96466
      H    H16658    20.71608   23.15302   62.73088
      O    O16659    34.39968   33.54211   49.75878
      H    H16660    34.11185   34.00338   50.54657
      H    H16661    35.19489   33.08189   50.02721
      O    O16662    20.58384   37.91709   63.34605
      H    H16663    20.69295   36.97657   63.20559
      H    H16664    19.93190   38.18257   62.69743
      O    O16665    28.57510   36.18868   64.74587
      H    H16666    28.25479   35.46961   65.29044
      H    H16667    27.90093   36.86419   64.81947
      O    O16668    26.61652   37.03473   49.68918
      H    H16669    26.60753   37.76770   49.07363
      H    H16670    25.69635   36.78788   49.78188
      O    O16671    22.21718   32.25622   50.43386
      H    H16672    21.60997   32.99611   50.44339
      H    H16673    22.69211   32.34615   49.60768
      O    O16674    31.79046   26.42130   60.10955
      H    H16675    32.15854   25.60082   60.43750
      H    H16676    30.93028   26.48149   60.52511
      O    O16677    35.15666   25.37699   50.91830
      H    H16678    34.52798   25.48156   50.20413
      H    H16679    34.66185   25.59667   51.70769
      O    O16680    29.60248   37.09755   48.35170
      H    H16681    29.70367   36.89395   47.42190
      H    H16682    28.70265   36.84338   48.55648
      O    O16683    27.12506   27.65559   52.33409
      H    H16684    26.41668   28.12422   52.77545
      H    H16685    27.40951   26.99779   52.96861
      O    O16686    28.75066   29.07526   60.33334
      H    H16687    29.24918   29.54984   60.99853
      H    H16688    28.89295   28.15161   60.54035
      O    O16689    31.15661   24.38065   53.77367
      H    H16690    31.03339   24.39927   52.82462
      H    H16691    32.10506   24.42855   53.89351
      O    O16692    28.24429   39.61618   53.04647
      H    H16693    28.49844   39.57832   52.12440
      H    H16694    27.29553   39.48952   53.03929
      O    O16695    25.32857   25.96409   49.70916
      H    H16696    26.17762   26.40111   49.64318
      H    H16697    24.96169   26.27612   50.53637
      O    O16698    35.95734   25.29205   61.17618
      H    H16699    35.45470   26.03259   61.51556
      H    H16700    36.77301   25.68045   60.85986
      O    O16701    34.24954   30.53537   54.62232
      H    H16702    33.30856   30.55039   54.79709
      H    H16703    34.56395   29.74897   55.06835
      O    O16704    24.22771   32.21733   48.18271
      H    H16705    24.99404   32.10547   48.74526
      H    H16706    24.30518   31.52113   47.53039
      O    O16707    22.92238   29.64984   48.86600
      H    H16708    23.00274   28.70259   48.97774
      H    H16709    23.81436   29.98053   48.97207
      O    O16710    36.25210   37.70626   56.29774
      H    H16711    36.37684   38.52937   56.77013
      H    H16712    37.11866   37.49533   55.95016
      O    O16713    23.72386   39.79938   55.96946
      H    H16714    24.46010   39.25092   56.24031
      H    H16715    24.10795   40.66498   55.83006
      O    O16716    20.60840   35.86673   51.84361
      H    H16717    19.68238   36.10885   51.83415
      H    H16718    21.07405   36.69416   51.72208
      O    O16719    22.72968   38.98398   65.15802
      H    H16720    23.53096   39.30519   65.57156
      H    H16721    22.21487   38.62354   65.88001
      O    O16722    26.83409   38.97241   47.79201
      H    H16723    27.62695   39.26129   47.34019
      H    H16724    26.31452   38.54162   47.11326
      O    O16725    31.56615   35.09197   65.10556
      H    H16726    30.95996   35.11513   64.36513
      H    H16727    31.26156   34.36027   65.64228
      O    O16728    32.99618   38.82000   63.71650
      H    H16729    33.94836   38.73580   63.66652
      H    H16730    32.84901   39.48417   64.38988
      O    O16731    35.88710   38.19942   49.21569
      H    H16732    35.60125   37.78593   48.40111
      H    H16733    35.68906   39.12819   49.09574
      O    O16734    20.44946   31.47133   64.10162
      H    H16735    20.95337   30.89206   64.67324
      H    H16736    19.71021   31.75535   64.63926
      O    O16737    27.35183   34.19275   47.65625
      H    H16738    27.24689   33.57798   48.38239
      H    H16739    27.18425   33.66934   46.87255
      O    O16740    27.50326   32.87843   63.63517
      H    H16741    26.73783   33.44693   63.55064
      H    H16742    27.68485   32.58605   62.74200
      O    O16743    30.59210   33.25475   48.26045
      H    H16744    30.04311   33.70168   48.90472
      H    H16745    31.21403   32.74968   48.78422
      O    O16746    34.64559   34.60896   64.19267
      H    H16747    35.38654   34.94654   63.68942
      H    H16748    33.88286   34.77817   63.63965
      O    O16749    22.48177   29.61429   64.99663
      H    H16750    22.52231   29.31568   65.90515
      H    H16751    23.33632   30.01505   64.83738
      O    O16752    26.25961   32.21384   50.15698
      H    H16753    26.68125   32.04783   51.00012
      H    H16754    26.38470   31.40387   49.66249
      O    O16755    24.42235   28.19350   62.96408
      H    H16756    23.89200   27.70259   62.33641
      H    H16757    25.09116   28.62192   62.42987
      O    O16758    28.77238   31.23760   47.40469
      H    H16759    29.29294   30.52251   47.03880
      H    H16760    29.41922   31.87619   47.70474
      O    O16761    33.32016   32.66044   62.72820
      H    H16762    33.73426   32.81495   63.57724
      H    H16763    32.38526   32.78597   62.89077
      O    O16764    33.79238   30.00006   64.73211
      H    H16765    34.37445   29.24529   64.64416
      H    H16766    33.96855   30.53080   63.95526
      O    O16767    24.90958   25.15974   63.04381
      H    H16768    24.81527   24.54181   62.31889
      H    H16769    24.32932   25.88636   62.81680
      O    O16770    27.67573   23.71706   60.07654
      H    H16771    27.22746   23.73949   59.23110
      H    H16772    27.04225   23.31896   60.67357
      O    O16773    28.08168   32.61249   60.69779
      H    H16774    28.50049   33.45577   60.52541
      H    H16775    27.16255   32.74970   60.46847
      O    O16776    30.41807   30.34411   62.08157
      H    H16777    30.53769   29.74822   62.82106
      H    H16778    31.27747   30.38108   61.66170
      O    O16779    32.75686   30.89783   60.65782
      H    H16780    32.23038   31.42209   60.05434
      H    H16781    33.10000   31.53057   61.28880
      O    O16782    25.15550   28.28717   47.10279
      H    H16783    24.95441   27.42390   47.46413
      H    H16784    24.98471   28.20050   46.16495
      O    O16785    25.93242   38.91779   61.81356
      H    H16786    25.39453   39.64240   61.49443
      H    H16787    26.18582   38.44083   61.02330
      O    O16788    27.18495   26.88625   63.33915
      H    H16789    27.77492   26.57783   64.02694
      H    H16790    26.36697   26.41422   63.49514
      O    O16791    32.00429   26.50283   63.57246
      H    H16792    31.31584   25.84098   63.50746
      H    H16793    32.72489   26.05665   64.01730
      O    O16794    32.63433   23.09799   49.63148
      H    H16795    32.91456   22.25478   49.98742
      H    H16796    31.86091   23.33030   50.14536
      O    O16797    23.95378   25.38723   47.09058
      H    H16798    24.25637   25.39397   46.18250
      H    H16799    24.69324   25.03701   47.58735
      O    O16800    28.78865   40.15291   62.07223
      H    H16801    28.71452   41.05643   62.37946
      H    H16802    27.88653   39.83410   62.04443
      O    O16803    27.17227   24.33069   48.07620
      H    H16804    26.82447   23.65309   47.49645
      H    H16805    27.37355   23.86964   48.89054
      O    O16806    29.33718   39.31877   49.69486
      H    H16807    30.23226   39.65726   49.71674
      H    H16808    29.36894   38.59671   49.06729
      O    O16809    22.97679   34.69147   47.92356
      H    H16810    23.41428   35.23444   48.57932
      H    H16811    23.46157   33.86617   47.93320
      O    O16812    20.19137   37.48037   55.37559
      H    H16813    20.52168   36.61248   55.14345
      H    H16814    20.62047   37.68623   56.20608
      O    O16815    24.78757   35.81127   53.03579
      H    H16816    24.48712   35.68777   53.93618
      H    H16817    24.68132   34.95213   52.62736
      O    O16818    20.68040   38.34743   58.11375
      H    H16819    20.24349   38.52751   58.94617
      H    H16820    21.24816   39.10489   57.97192
      O    O16821    36.31661   37.84913   62.40148
      H    H16822    35.71681   37.90839   61.65787
      H    H16823    36.44600   36.90963   62.53117
      O    O16824    37.55676   35.59091   47.73845
      H    H16825    36.72605   35.65858   48.20918
      H    H16826    37.73394   36.48133   47.43514
      O    O16827    37.01240   32.33566   50.24187
      H    H16828    37.77430   32.90533   50.34784
      H    H16829    37.02784   31.76838   51.01270
      O    O16830    20.51284   30.85946   54.47264
      H    H16831    19.85772   30.59062   53.82861
      H    H16832    21.35063   30.74990   54.02284
      O    O16833    38.01840   33.19067   55.08607
      H    H16834    38.38928   32.40740   54.67966
      H    H16835    38.65859   33.87958   54.90780
      O    O16836    35.00178   34.57433   60.49910
      H    H16837    34.18776   35.00405   60.76168
      H    H16838    35.40920   35.18617   59.88600
      O    O16839    37.06432   32.62910   47.39913
      H    H16840    37.33921   33.53699   47.27105
      H    H16841    36.87540   32.56535   48.33532
      O    O16842    33.46188   25.65358   48.69449
      H    H16843    33.88037   25.46668   47.85415
      H    H16844    33.15549   24.80149   49.00478
      O    O16845    36.96086   30.56600   52.39207
      H    H16846    36.58522   29.79879   51.96020
      H    H16847    36.23117   30.94827   52.87956
      O    O16848    21.55043   31.24471   59.01297
      H    H16849    21.91774   31.15745   59.89258
      H    H16850    20.98151   30.48137   58.91366
      O    O16851    36.35082   29.71315   62.02602
      H    H16852    36.11943   29.48443   61.12582
      H    H16853    36.61127   30.63311   61.98051
      O    O16854    21.10203   28.15562   62.91882
      H    H16855    20.20764   28.12230   63.25819
      H    H16856    21.64179   28.35430   63.68394
      O    O16857    34.78962   24.93879   64.80399
      H    H16858    35.66664   24.94713   65.18739
      H    H16859    34.80171   24.20188   64.19323
      O    O16860    19.72665   28.06935   50.41517
      H    H16861    18.82305   28.33237   50.24034
      H    H16862    20.21071   28.34047   49.63517
      O    O16863    36.23595   28.79175   55.69279
      H    H16864    36.75970   28.29801   55.06181
      H    H16865    36.82189   28.92678   56.43755
      O    O16866    36.41492   28.87573   59.21475
      H    H16867    35.46519   28.84209   59.32925
      H    H16868    36.59622   29.78575   58.97972
      O    O16869    22.26937   27.12590   48.32461
      H    H16870    22.97854   26.70422   47.83934
      H    H16871    21.55336   27.19343   47.69295
      O    O16872    21.91678   23.17984   47.36488
      H    H16873    22.63960   23.72073   47.68300
      H    H16874    22.18924   22.90618   46.48903
      O    O16875    35.72595   28.04908   51.63203
      H    H16876    36.22186   27.81617   52.41692
      H    H16877    35.52756   27.21027   51.21580
      O    O16878    21.60600   22.43045   57.26714
      H    H16879    22.25362   21.88019   56.82665
      H    H16880    22.02619   22.68477   58.08872
      O    O16881    37.15466   26.68518   54.16580
      H    H16882    37.04459   26.53078   55.10403
      H    H16883    37.91542   26.15727   53.92334
      O    O16884    35.50124   22.62459   60.62410
      H    H16885    36.13846   23.23800   60.99002
      H    H16886    35.64873   22.66066   59.67902
      O    O16887    38.04369   24.51597   47.40642
      H    H16888    38.96862   24.38409   47.19824
      H    H16889    38.02127   24.59525   48.36006
      O    O16890    38.11754   25.28704   50.03209
      H    H16891    37.32269   25.22155   50.56138
      H    H16892    38.32187   26.22210   50.02062
      O    O16893    35.05938   39.32619   54.02593
      H    H16894    35.65529   39.00465   53.34937
      H    H16895    35.31720   38.85337   54.81725
      O    O16896    21.35920   22.58602   60.00967
      H    H16897    21.01068   23.04240   60.77549
      H    H16898    21.02797   21.69173   60.09191
      O    O16899    22.96564   35.75798   64.17499
      H    H16900    22.92260   35.38727   65.05643
      H    H16901    23.09674   36.69574   64.31517
      O    O16902    26.66624   37.31394   59.77596
      H    H16903    26.42538   37.58140   58.88901
      H    H16904    27.60651   37.48451   59.83105
      O    O16905    28.87168   23.77721   63.53161
      H    H16906    28.81057   24.36939   64.28115
      H    H16907    29.81172   23.66981   63.38664
      O    O16908    31.50914   23.43422   63.17084
      H    H16909    32.12318   23.75214   62.50895
      H    H16910    32.05410   22.94907   63.79043
      O    O16911    37.92666   39.33338   60.57702
      H    H16912    37.43249   39.73027   59.85974
      H    H16913    37.31799   38.70830   60.97075
      O    O16914    22.03127   22.11364   63.28475
      H    H16915    22.57957   21.93245   62.52136
      H    H16916    22.09680   21.32305   63.82038
      O    O16917    22.80444   38.70421   61.29477
      H    H16918    22.21047   38.57268   62.03377
      H    H16919    22.79683   37.86802   60.82898
      O    O16920    32.24994   21.99743   59.49777
      H    H16921    31.37593   22.33094   59.29506
      H    H16922    32.14102   21.52475   60.32296
      O    O16923    33.15714   24.20452   60.88194
      H    H16924    32.82848   23.38969   60.50211
      H    H16925    34.10537   24.16150   60.75851
      O    O16926    35.61060   39.97572   57.85570
      H    H16927    35.15090   40.72730   57.48150
      H    H16928    34.98185   39.25637   57.79718
      O    O16929    22.43567   36.07004   60.24557
      H    H16930    21.70907   35.45057   60.17817
      H    H16931    22.49658   36.46411   59.37538
      O    O16932    26.04018   38.28454   57.03051
      H    H16933    26.55668   37.67328   56.50534
      H    H16934    26.68991   38.78742   57.52161
      O    O16935    28.77973   39.17539   57.85741
      H    H16936    29.06751   38.92082   56.98071
      H    H16937    29.29205   38.62313   58.44797
      O    O16938    29.99743   22.91441   58.43706
      H    H16939    29.21461   23.38896   58.71674
      H    H16940    29.70372   22.00990   58.32838
      O    O16941    34.54953   23.61672   56.48197
      H    H16942    34.99034   23.56123   55.63413
      H    H16943    34.28029   24.53252   56.55299
      O    O16944    36.41339   23.24825   54.49285
      H    H16945    36.35223   22.30437   54.34595
      H    H16946    37.19259   23.35626   55.03820
      O    O16947    20.71867   39.38748   53.45525
      H    H16948    20.55087   38.75455   54.15344
      H    H16949    19.85212   39.59342   53.10467
      O    O16950    21.34147   23.21916   50.95843
      H    H16951    22.09940   23.33205   50.38484
      H    H16952    20.87918   24.05608   50.91278
      O    O16953    27.88285   25.33309   53.94866
      H    H16954    27.07030   24.95878   53.60825
      H    H16955    28.38701   24.57760   54.25078
      O    O16956    32.38535   21.99733   55.18697
      H    H16957    32.98828   22.56935   55.66182
      H    H16958    31.64465   22.56128   54.96436
      O    O16959    35.52881   22.39949   50.46100
      H    H16960    35.72387   23.29783   50.72774
      H    H16961    34.74179   22.16820   50.95429
      O    O16962    22.32494   38.08081   50.90026
      H    H16963    21.79970   38.46161   50.19646
      H    H16964    22.24939   38.70588   51.62123
      O    O16965    23.71398   23.74557   49.49863
      H    H16966    24.24326   22.95855   49.36942
      H    H16967    24.34681   24.42469   49.73218
      O    O16968    25.90777   23.48308   52.55317
      H    H16969    25.27804   22.78181   52.72018
      H    H16970    25.36828   24.24349   52.33648
      O    O16971    28.84696   40.09700   65.22423
      H    H16972    29.77369   39.86143   65.26783
      H    H16973    28.83200   40.92420   64.74283
      O    O16974    37.08147   39.63956   52.22165
      H    H16975    37.25669   38.95333   51.57775
      H    H16976    36.38362   40.16427   51.82932
      O    O16977    26.03332   22.76148   64.98842
      H    H16978    25.75175   23.26484   64.22450
      H    H16979    26.41529   21.96365   64.62263
      O    O16980    24.92423   40.02904   49.77519
      H    H16981    25.65611   39.74497   49.22757
      H    H16982    25.18360   39.79037   50.66512
      O    O16983    24.08571   36.14552   49.77982
      H    H16984    23.45660   36.61403   50.32840
      H    H16985    24.20049   35.30044   50.21444
      O    O16986    32.63487   22.17684   65.56646
      H    H16987    32.52141   22.49630   66.46162
      H    H16988    33.45184   22.57809   65.27019
      O    O16989    35.41472   39.32399   65.04833
      H    H16990    36.20725   38.82891   64.84093
      H    H16991    35.70803   40.00300   65.65589
      O    O16992    -8.77632   -6.31110   66.17904
      H    H16993    -8.25576   -7.02619   65.81315
      H    H16994    -8.12948   -5.67251   66.47909
      O    O16995     8.05974    1.42371   66.56636
      H    H16996     8.85260    1.71259   66.11454
      H    H16997     7.54017    0.99292   65.88761
      O    O16998     9.99803   -6.31110   66.17904
      H    H16999    10.51859   -7.02619   65.81315
      H    H17000    10.64487   -5.67251   66.47909
      O    O17001    26.83409    1.42371   66.56636
      H    H17002    27.62695    1.71259   66.11454
      H    H17003    26.31452    0.99292   65.88761
      O    O17004    28.77238   -6.31110   66.17904
      H    H17005    29.29294   -7.02619   65.81315
      H    H17006    29.41922   -5.67251   66.47909
      O    O17007    -8.77632   12.46325   66.17904
      H    H17008    -8.25576   11.74816   65.81315
      H    H17009    -8.12948   13.10184   66.47909
      O    O17010     1.00045    8.99017   66.17741
      H    H17011     0.91792    9.93325   66.31891
      H    H17012     0.64876    8.84766   65.29864
      O    O17013     8.05974   20.19806   66.56636
      H    H17014     8.85260   20.48694   66.11454
      H    H17015     7.54017   19.76727   65.88761
      O    O17016     9.99803   12.46325   66.17904
      H    H17017    10.51859   11.74816   65.81315
      H    H17018    10.64487   13.10184   66.47909
      O    O17019     6.38115    9.51282   65.87714
      H    H17020     6.18006    8.64955   66.23848
      H    H17021     6.21036    9.42615   64.93930
      O    O17022     5.17943    6.61288   65.86493
      H    H17023     5.48202    6.61962   64.95685
      H    H17024     5.91889    6.26266   66.36170
      O    O17025     3.14243    4.40549   66.13923
      H    H17026     3.86525    4.94638   66.45735
      H    H17027     3.41489    4.13183   65.26338
      O    O17028    19.77480    8.99017   66.17741
      H    H17029    19.69227    9.93325   66.31891
      H    H17030    19.42311    8.84766   65.29864
      O    O17031    26.83409   20.19806   66.56636
      H    H17032    27.62695   20.48694   66.11454
      H    H17033    26.31452   19.76727   65.88761
      O    O17034    28.77238   12.46325   66.17904
      H    H17035    29.29294   11.74816   65.81315
      H    H17036    29.41922   13.10184   66.47909
      O    O17037    25.15550    9.51282   65.87714
      H    H17038    24.95441    8.64955   66.23848
      H    H17039    24.98471    9.42615   64.93930
      O    O17040    23.95378    6.61288   65.86493
      H    H17041    24.25637    6.61962   64.95685
      H    H17042    24.69324    6.26266   66.36170
      O    O17043    21.91678    4.40549   66.13923
      H    H17044    22.63960    4.94638   66.45735
      H    H17045    22.18924    4.13183   65.26338
      O    O17046    -8.77632   31.23760   66.17904
      H    H17047    -8.25576   30.52251   65.81315
      H    H17048    -8.12948   31.87619   66.47909
      O    O17049     1.00045   27.76452   66.17741
      H    H17050     0.91792   28.70760   66.31891
      H    H17051     0.64876   27.62201   65.29864
      O    O17052     8.05974   38.97241   66.56636
      H    H17053     8.85260   39.26129   66.11454
      H    H17054     7.54017   38.54162   65.88761
      O    O17055     9.99803   31.23760   66.17904
      H    H17056    10.51859   30.52251   65.81315
      H    H17057    10.64487   31.87619   66.47909
      O    O17058     6.38115   28.28717   65.87714
      H    H17059     6.18006   27.42390   66.23848
      H    H17060     6.21036   28.20050   64.93930
      O    O17061     5.17943   25.38723   65.86493
      H    H17062     5.48202   25.39397   64.95685
      H    H17063     5.91889   25.03701   66.36170
      O    O17064     3.14243   23.17984   66.13923
      H    H17065     3.86525   23.72073   66.45735
      H    H17066     3.41489   22.90618   65.26338
      O    O17067    19.77480   27.76452   66.17741
      H    H17068    19.69227   28.70760   66.31891
      H    H17069    19.42311   27.62201   65.29864
      O    O17070    26.83409   38.97241   66.56636
      H    H17071    27.62695   39.26129   66.11454
      H    H17072    26.31452   38.54162   65.88761
      O    O17073    28.77238   31.23760   66.17904
      H    H17074    29.29294   30.52251   65.81315
      H    H17075    29.41922   31.87619   66.47909
      O    O17076    25.15550   28.28717   65.87714
      H    H17077    24.95441   27.42390   66.23848
      H    H17078    24.98471   28.20050   64.93930
      O    O17079    23.95378   25.38723   65.86493
      H    H17080    24.25637   25.39397   64.95685
      H    H17081    24.69324   25.03701   66.36170
      O    O17082    21.91678   23.17984   66.13923
      H    H17083    22.63960   23.72073   66.45735
      H    H17084    22.18924   22.90618   65.26338
