# CIF file generated by openbabel 2.3.2, see http://openbabel.sf.net
data_I
_chemical_name_common '7GNR_PBA_UDP.bgf'
_cell_length_a 35
_cell_length_b 30
_cell_length_c 55.4136
_cell_angle_alpha 90
_cell_angle_beta 90
_cell_angle_gamma 90
loop_
    _atom_site_type_symbol
    _atom_site_label
    _atom_site_Cartn_x
    _atom_site_Cartn_y
    _atom_site_Cartn_z
      H    H1    22.95100   13.31200   10.65930
      H    H2    22.95100   13.31200   49.02230
      H    H3    22.90900   12.09400    8.48230
      H    H4    22.90900   12.09400   46.84530
      H    H5    22.88100   15.48400   11.94930
      H    H6    22.88100   15.48400   50.31230
      C    C7    22.87000   14.29200   10.12130
      C    C8    22.87000   14.29200   48.48430
      C    C9    22.83600   13.06600    7.93030
      C    C10    22.83600   13.06600   46.29330
      H    H11    22.73800   12.12000    5.95430
      H    H12    22.73800   12.12000   44.31830
      C    C13    22.83800   15.48300   10.83030
      C    C14    22.83800   15.48300   49.19330
      C    C15    22.82500   14.27600    8.67430
      C    C16    22.82500   14.27600   47.03830
      C    C17    22.74900   13.08500    6.52430
      C    C18    22.74900   13.08500   44.88730
      H    H19    22.74500   17.97600   11.96930
      H    H20    22.74500   17.97600   50.33230
      C    C21    22.76500   16.75700   10.14530
      C    C22    22.76500   16.75700   48.50830
      C    C23    22.77100   15.53300    7.95830
      C    C24    22.77100   15.53300   46.32130
      C    C25    22.72200   17.99200   10.85030
      C    C26    22.72200   17.99200   49.21330
      C    C27    22.68100   14.29900    5.79730
      C    C28    22.68100   14.29900   44.16030
      C    C29    22.74600   16.77200    8.69630
      C    C30    22.74600   16.77200   47.06030
      C    C31    22.72100   15.54500    6.51130
      C    C32    22.72100   15.54500   44.87430
      H    H33    22.69300   16.85800    4.71930
      H    H34    22.69300   16.85800   43.08230
      C    C35    22.66600   19.22000   10.15330
      C    C36    22.66600   19.22000   48.51630
      C    C37    22.69300   18.03400    7.99330
      C    C38    22.69300   18.03400   46.35630
      H    H39    22.64000   20.18200   10.72630
      H    H40    22.64000   20.18200   49.08930
      C    C41    22.69500   16.82800    5.83730
      C    C42    22.69500   16.82800   44.20030
      C    C43    22.65500   19.24400    8.74230
      C    C44    22.65500   19.24400   47.10530
      C    C45    22.68700   18.02000    6.54830
      C    C46    22.68700   18.02000   44.91130
      H    H47    22.61600   20.21800    8.18930
      H    H48    22.61600   20.21800   46.55230
      H    H49    22.67900   19.00100    6.00730
      H    H50    22.67900   19.00100   44.37030
      C    C51    22.41900   14.25900    4.29330
      C    C52    22.41900   14.25900   42.65630
      H    H53    20.28300   13.78000    4.57630
      H    H54    20.28300   13.78000   42.93930
      H    H55    22.69400   13.24300    3.88630
      H    H56    22.69400   13.24300   42.24930
      H    H57    20.63900   15.55300    4.47030
      H    H58    20.63900   15.55300   42.83330
      H    H59    23.05100   15.01200    3.73630
      H    H60    23.05100   15.01200   42.10030
      C    C61    20.90100   14.54800    4.02730
      C    C62    20.90100   14.54800   42.39130
      O    O63    18.59000   16.12400    2.12830
      O    O64    18.59000   16.12400   40.49130
      C    C65    20.50800   14.54100    2.50830
      C    C66    20.50800   14.54100   40.87130
      C    C67    19.03600   14.93500    2.35730
      C    C68    19.03600   14.93500   40.72130
      H    H69    21.12600   15.29500    1.94530
      H    H70    21.12600   15.29500   40.30830
      H    H71    20.68900   13.51700    2.07030
      H    H72    20.68900   13.51700   40.43330
      O    O73    18.18400   13.85000    2.56430
      O    O74    18.18400   13.85000   40.92730
      H    H75    17.23300   14.31000    2.48830
      H    H76    17.23300   14.31000   40.85130
      C    C77    26.00300   11.72700    2.84230
      C    C78    26.00300   11.72700   32.68030
      C    C79    26.00300   11.72700    7.10430
      C    C80    26.00300   11.72700   36.94230
      C    C81    26.00300   11.72700   11.36730
      C    C82    26.00300   11.72700   41.20530
      C    C83    26.00300   11.72700   15.62930
      C    C84    26.00300   11.72700   45.46830
      C    C85    26.00300   11.72700   19.89230
      C    C86    26.00300   11.72700   49.73030
      C    C87    26.00300   11.72700   24.15530
      C    C88    26.00300   11.72700   53.99330
      C    C89    26.00300   11.72700   28.41730
      C    C90    26.00300   12.95800    3.55230
      C    C91    26.00300   12.95800   33.39030
      C    C92    26.00300   12.95800    7.81530
      C    C93    26.00300   12.95800   37.65330
      C    C94    26.00300   12.95800   12.07730
      C    C95    26.00300   12.95800   41.91530
      C    C96    26.00300   12.95800   16.34030
      C    C97    26.00300   12.95800   46.17830
      C    C98    26.00300   12.95800   20.60230
      C    C99    26.00300   12.95800   50.44130
      C    C100    26.00300   12.95800   24.86530
      C    C101    26.00300   12.95800   54.70330
      C    C102    26.00300   12.95800   29.12830
      C    C103    26.00300   11.72700    1.42130
      C    C104    26.00300   11.72700   31.25930
      C    C105    26.00300   11.72700    5.68330
      C    C106    26.00300   11.72700   35.52230
      C    C107    26.00300   11.72700    9.94630
      C    C108    26.00300   11.72700   39.78430
      C    C109    26.00300   11.72700   14.20930
      C    C110    26.00300   11.72700   44.04730
      C    C111    26.00300   11.72700   18.47130
      C    C112    26.00300   11.72700   48.30930
      C    C113    26.00300   11.72700   22.73430
      C    C114    26.00300   11.72700   52.57230
      C    C115    26.00300   11.72700   26.99630
      C    C116    26.00300   14.18800    2.84230
      C    C117    26.00300   14.18800   32.68030
      C    C118    26.00300   14.18800    7.10430
      C    C119    26.00300   14.18800   36.94230
      C    C120    26.00300   14.18800   11.36730
      C    C121    26.00300   14.18800   41.20530
      C    C122    26.00300   14.18800   15.62930
      C    C123    26.00300   14.18800   45.46830
      C    C124    26.00300   14.18800   19.89230
      C    C125    26.00300   14.18800   49.73030
      C    C126    26.00300   14.18800   24.15530
      C    C127    26.00300   14.18800   53.99330
      C    C128    26.00300   14.18800   28.41730
      C    C129    26.00300   15.41900    3.55230
      C    C130    26.00300   15.41900   33.39030
      C    C131    26.00300   15.41900    7.81530
      C    C132    26.00300   15.41900   37.65330
      C    C133    26.00300   15.41900   12.07730
      C    C134    26.00300   15.41900   41.91530
      C    C135    26.00300   15.41900   16.34030
      C    C136    26.00300   15.41900   46.17830
      C    C137    26.00300   15.41900   20.60230
      C    C138    26.00300   15.41900   50.44130
      C    C139    26.00300   15.41900   24.86530
      C    C140    26.00300   15.41900   54.70330
      C    C141    26.00300   15.41900   29.12830
      C    C142    26.00300   12.95800    0.71030
      C    C143    26.00300   12.95800   30.54930
      C    C144    26.00300   12.95800    4.97330
      C    C145    26.00300   12.95800   34.81130
      C    C146    26.00300   12.95800    9.23630
      C    C147    26.00300   12.95800   39.07430
      C    C148    26.00300   12.95800   13.49830
      C    C149    26.00300   12.95800   43.33630
      C    C150    26.00300   12.95800   17.76130
      C    C151    26.00300   12.95800   47.59930
      C    C152    26.00300   12.95800   22.02330
      C    C153    26.00300   12.95800   51.86130
      C    C154    26.00300   12.95800   26.28630
      C    C155    26.00300   14.18800    1.42130
      C    C156    26.00300   14.18800   31.25930
      C    C157    26.00300   14.18800    5.68330
      C    C158    26.00300   14.18800   35.52230
      C    C159    26.00300   14.18800    9.94630
      C    C160    26.00300   14.18800   39.78430
      C    C161    26.00300   14.18800   14.20930
      C    C162    26.00300   14.18800   44.04730
      C    C163    26.00300   14.18800   18.47130
      C    C164    26.00300   14.18800   48.30930
      C    C165    26.00300   14.18800   22.73430
      C    C166    26.00300   14.18800   52.57230
      C    C167    26.00300   14.18800   26.99630
      C    C168    26.00300   16.64900    2.84230
      C    C169    26.00300   16.64900   32.68030
      C    C170    26.00300   16.64900    7.10430
      C    C171    26.00300   16.64900   36.94230
      C    C172    26.00300   16.64900   11.36730
      C    C173    26.00300   16.64900   41.20530
      C    C174    26.00300   16.64900   15.62930
      C    C175    26.00300   16.64900   45.46830
      C    C176    26.00300   16.64900   19.89230
      C    C177    26.00300   16.64900   49.73030
      C    C178    26.00300   16.64900   24.15530
      C    C179    26.00300   16.64900   53.99330
      C    C180    26.00300   16.64900   28.41730
      C    C181    26.00300   17.88000    3.55230
      C    C182    26.00300   17.88000   33.39030
      C    C183    26.00300   17.88000    7.81530
      C    C184    26.00300   17.88000   37.65330
      C    C185    26.00300   17.88000   12.07730
      C    C186    26.00300   17.88000   41.91530
      C    C187    26.00300   17.88000   16.34030
      C    C188    26.00300   17.88000   46.17830
      C    C189    26.00300   17.88000   20.60230
      C    C190    26.00300   17.88000   50.44130
      C    C191    26.00300   17.88000   24.86530
      C    C192    26.00300   17.88000   54.70330
      C    C193    26.00300   17.88000   29.12830
      C    C194    26.00300   15.41900    0.71030
      C    C195    26.00300   15.41900   30.54930
      C    C196    26.00300   15.41900    4.97330
      C    C197    26.00300   15.41900   34.81130
      C    C198    26.00300   15.41900    9.23630
      C    C199    26.00300   15.41900   39.07430
      C    C200    26.00300   15.41900   13.49830
      C    C201    26.00300   15.41900   43.33630
      C    C202    26.00300   15.41900   17.76130
      C    C203    26.00300   15.41900   47.59930
      C    C204    26.00300   15.41900   22.02330
      C    C205    26.00300   15.41900   51.86130
      C    C206    26.00300   15.41900   26.28630
      C    C207    26.00300   16.64900    1.42130
      C    C208    26.00300   16.64900   31.25930
      C    C209    26.00300   16.64900    5.68330
      C    C210    26.00300   16.64900   35.52230
      C    C211    26.00300   16.64900    9.94630
      C    C212    26.00300   16.64900   39.78430
      C    C213    26.00300   16.64900   14.20930
      C    C214    26.00300   16.64900   44.04730
      C    C215    26.00300   16.64900   18.47130
      C    C216    26.00300   16.64900   48.30930
      C    C217    26.00300   16.64900   22.73430
      C    C218    26.00300   16.64900   52.57230
      C    C219    26.00300   16.64900   26.99630
      C    C220    26.00300   19.11000    2.84230
      C    C221    26.00300   19.11000   32.68030
      C    C222    26.00300   19.11000    7.10430
      C    C223    26.00300   19.11000   36.94230
      C    C224    26.00300   19.11000   11.36730
      C    C225    26.00300   19.11000   41.20530
      C    C226    26.00300   19.11000   15.62930
      C    C227    26.00300   19.11000   45.46830
      C    C228    26.00300   19.11000   19.89230
      C    C229    26.00300   19.11000   49.73030
      C    C230    26.00300   19.11000   24.15530
      C    C231    26.00300   19.11000   53.99330
      C    C232    26.00300   19.11000   28.41730
      C    C233    26.00300   17.88000    0.71030
      C    C234    26.00300   17.88000   30.54930
      C    C235    26.00300   17.88000    4.97330
      C    C236    26.00300   17.88000   34.81130
      C    C237    26.00300   17.88000    9.23630
      C    C238    26.00300   17.88000   39.07430
      C    C239    26.00300   17.88000   13.49830
      C    C240    26.00300   17.88000   43.33630
      C    C241    26.00300   17.88000   17.76130
      C    C242    26.00300   17.88000   47.59930
      C    C243    26.00300   17.88000   22.02330
      C    C244    26.00300   17.88000   51.86130
      C    C245    26.00300   17.88000   26.28630
      C    C246    26.00300   19.11000    1.42130
      C    C247    26.00300   19.11000   31.25930
      C    C248    26.00300   19.11000    5.68330
      C    C249    26.00300   19.11000   35.52230
      C    C250    26.00300   19.11000    9.94630
      C    C251    26.00300   19.11000   39.78430
      C    C252    26.00300   19.11000   14.20930
      C    C253    26.00300   19.11000   44.04730
      C    C254    26.00300   19.11000   18.47130
      C    C255    26.00300   19.11000   48.30930
      C    C256    26.00300   19.11000   22.73430
      C    C257    26.00300   19.11000   52.57230
      C    C258    26.00300   19.11000   26.99630
      H    H259    26.00300   10.78300    3.38730
      H    H260    26.00300   10.78300   33.22530
      H    H261    26.00300   10.78300    7.64930
      H    H262    26.00300   10.78300   37.48730
      H    H263    26.00300   10.78300   11.91230
      H    H264    26.00300   10.78300   41.75030
      H    H265    26.00300   10.78300   16.17430
      H    H266    26.00300   10.78300   46.01330
      H    H267    26.00300   10.78300   20.43730
      H    H268    26.00300   10.78300   50.27530
      H    H269    26.00300   10.78300   24.70030
      H    H270    26.00300   10.78300   54.53830
      H    H271    26.00300   10.78300   28.96230
      H    H272    26.00300   10.78300    0.87630
      H    H273    26.00300   10.78300   30.71430
      H    H274    26.00300   10.78300    5.13830
      H    H275    26.00300   10.78300   34.97730
      H    H276    26.00300   10.78300    9.40130
      H    H277    26.00300   10.78300   39.23930
      H    H278    26.00300   10.78300   13.66430
      H    H279    26.00300   10.78300   43.50230
      H    H280    26.00300   10.78300   17.92630
      H    H281    26.00300   10.78300   47.76430
      H    H282    26.00300   10.78300   22.18930
      H    H283    26.00300   10.78300   52.02730
      H    H284    26.00300   10.78300   26.45130
      H    H285    26.00300   20.05400    3.38730
      H    H286    26.00300   20.05400   33.22530
      H    H287    26.00300   20.05400    7.64930
      H    H288    26.00300   20.05400   37.48730
      H    H289    26.00300   20.05400   11.91230
      H    H290    26.00300   20.05400   41.75030
      H    H291    26.00300   20.05400   16.17430
      H    H292    26.00300   20.05400   46.01330
      H    H293    26.00300   20.05400   20.43730
      H    H294    26.00300   20.05400   50.27530
      H    H295    26.00300   20.05400   24.70030
      H    H296    26.00300   20.05400   54.53830
      H    H297    26.00300   20.05400   28.96230
      H    H298    26.00300   20.05400    0.87630
      H    H299    26.00300   20.05400   30.71430
      H    H300    26.00300   20.05400    5.13830
      H    H301    26.00300   20.05400   34.97730
      H    H302    26.00300   20.05400    9.40130
      H    H303    26.00300   20.05400   39.23930
      H    H304    26.00300   20.05400   13.66430
      H    H305    26.00300   20.05400   43.50230
      H    H306    26.00300   20.05400   17.92630
      H    H307    26.00300   20.05400   47.76430
      H    H308    26.00300   20.05400   22.18930
      H    H309    26.00300   20.05400   52.02730
      H    H310    26.00300   20.05400   26.45130
      H    H311    22.95100   13.31200   23.44630
      H    H312    22.90900   12.09400   21.27030
      H    H313    22.88100   15.48400   24.73730
      C    C314    22.87000   14.29200   22.90930
      C    C315    22.83600   13.06600   20.71830
      H    H316    22.73800   12.12000   18.74230
      C    C317    22.83800   15.48300   23.61830
      C    C318    22.82500   14.27600   21.46230
      C    C319    22.74900   13.08500   19.31130
      H    H320    22.74500   17.97600   24.75730
      C    C321    22.76500   16.75700   22.93230
      C    C322    22.77100   15.53300   20.74630
      C    C323    22.72200   17.99200   23.63830
      C    C324    22.68100   14.29900   18.58430
      C    C325    22.74600   16.77200   21.48430
      C    C326    22.72100   15.54500   19.29930
      H    H327    22.69300   16.85800   17.50730
      C    C328    22.66600   19.22000   22.94130
      C    C329    22.69300   18.03400   20.78130
      H    H330    22.64000   20.18200   23.51330
      C    C331    22.69500   16.82800   18.62530
      C    C332    22.65500   19.24400   21.53030
      C    C333    22.68700   18.02000   19.33530
      H    H334    22.61600   20.21800   20.97730
      H    H335    22.67900   19.00100   18.79530
      C    C336    22.41900   14.25900   17.08130
      H    H337    20.28300   13.78000   17.36430
      H    H338    22.69400   13.24300   16.67430
      H    H339    20.63900   15.55300   17.25830
      H    H340    23.05100   15.01200   16.52430
      C    C341    20.90100   14.54800   16.81530
      O    O342    18.59000   16.12400   14.91630
      C    C343    20.50800   14.54100   15.29630
      C    C344    19.03600   14.93500   15.14530
      H    H345    21.12600   15.29500   14.73330
      H    H346    20.68900   13.51700   14.85730
      O    O347    18.18400   13.85000   15.35130
      H    H348    17.23300   14.31000   15.27530
      H    H349    22.95100   13.31200   36.23430
      H    H350    22.90900   12.09400   34.05730
      H    H351    22.88100   15.48400   37.52530
      C    C352    22.87000   14.29200   35.69730
      C    C353    22.83600   13.06600   33.50530
      H    H354    22.73800   12.12000   31.53030
      C    C355    22.83800   15.48300   36.40630
      C    C356    22.82500   14.27600   34.25030
      C    C357    22.74900   13.08500   32.09930
      H    H358    22.74500   17.97600   37.54530
      C    C359    22.76500   16.75700   35.72030
      C    C360    22.77100   15.53300   33.53430
      C    C361    22.72200   17.99200   36.42530
      C    C362    22.68100   14.29900   31.37230
      C    C363    22.74600   16.77200   34.27230
      C    C364    22.72100   15.54500   32.08630
      H    H365    22.69300   16.85800   30.29430
      C    C366    22.66600   19.22000   35.72930
      C    C367    22.69300   18.03400   33.56930
      H    H368    22.64000   20.18200   36.30130
      C    C369    22.69500   16.82800   31.41230
      C    C370    22.65500   19.24400   34.31830
      C    C371    22.68700   18.02000   32.12330
      H    H372    22.61600   20.21800   33.76530
      H    H373    22.67900   19.00100   31.58230
      C    C374    22.41900   14.25900   29.86930
      H    H375    20.28300   13.78000   30.15230
      H    H376    22.69400   13.24300   29.46130
      H    H377    20.63900   15.55300   30.04630
      H    H378    23.05100   15.01200   29.31230
      C    C379    20.90100   14.54800   29.60330
      O    O380    18.59000   16.12400   27.70430
      C    C381    20.50800   14.54100   28.08430
      C    C382    19.03600   14.93500   27.93330
      H    H383    21.12600   15.29500   27.52130
      H    H384    20.68900   13.51700   27.64530
      O    O385    18.18400   13.85000   28.13930
      H    H386    17.23300   14.31000   28.06330
      P    P387    13.31900   11.21500    3.36230
      P    P388    12.12300   12.03300    5.92230
      O    O389    12.97100   16.90800    5.96530
      O    O390    15.82900   12.58800    5.55830
      O    O391    10.25900   16.89800    4.68630
      O    O392    11.93300   16.87200    2.53230
      O    O393    14.82000   11.16400    3.95330
      O    O394    11.66600   13.52700    6.34230
      O    O395    19.12400   11.82100    3.19130
      O    O396    18.94000   10.62500    5.79730
      O    O397    16.52500   12.18500    1.97230
      O    O398    12.51700   12.19800    4.36330
      O    O399    17.45600   13.23900    7.70830
      O    O400    14.34600   19.13600    2.79630
      O    O401    13.44500   12.08900    2.00630
      O    O402    10.73500   11.20400    5.86230
      O    O403    12.67900    9.87000    3.17530
      O    O404    13.19300   11.41600    6.77530
      O    O405    18.54500   17.38600    3.53930
      N    N406    14.55200   17.36300    4.30430
      N    N407    16.43600   18.26300    3.16730
      C    C408    11.27400   15.89500    4.65930
      C    C409    12.40400   16.31400    3.74230
      C    C410    11.95700   15.88100    6.02030
      C    C411    13.14900   17.32200    4.60030
      C    C412    17.88800   11.51600    3.84130
      C    C413    18.08600   11.67600    5.34930
      C    C414    16.80900   12.47300    3.33630
      C    C415    16.74500   11.62700    6.09430
      C    C416    15.53400   12.37900    4.17530
      C    C417    12.63800   14.55800    6.33930
      C    C418    16.90300   11.94200    7.57930
      C    C419    15.05200   18.31200    3.38230
      C    C420    15.41900   16.46900    4.92330
      C    C421    16.73500   16.43400    4.70830
      C    C422    17.33700   17.39200    3.75930
      H    H423    10.80300   14.95400    4.35930
      H    H424    13.03600   15.45000    3.50230
      H    H425    11.25500   16.13800    6.82230
      H    H426    12.72200   18.32700    4.49230
      H    H427    17.64800   10.47900    3.57730
      H    H428    18.60700   12.62100    5.54230
      H    H429    17.20100   13.49700    3.38130
      H    H430    16.30200   10.62600    6.01630
      H    H431    14.88800   13.21200    3.87830
      H    H432    13.12000   14.59900    7.32230
      H    H433    13.41700   14.32300    5.61030
      H    H434    15.92700   11.94200    8.07630
      H    H435    17.56000   11.22100    8.07530
      H    H436     9.57300   16.60200    5.30730
      H    H437    11.37900   16.20200    2.09830
      H    H438    15.00100   15.76300    5.62530
      H    H439    19.35400   12.74300    3.39430
      H    H440    18.47800    9.78200    5.65330
      H    H441    15.83000   12.80000    1.68230
      H    H442    16.81700   18.93600    2.50830
      H    H443    17.38000   15.72300    5.21030
      H    H444    17.54100   13.42100    8.66030
      H    H445    12.67400   12.13900    1.40130
      H    H446    10.00700   11.54200    5.29830
      P    P447    12.74300   11.21500   16.92130
      P    P448    11.54700   12.03300   19.48230
      O    O449    12.39500   16.90800   19.52430
      O    O450    15.25200   12.58800   19.11730
      O    O451     9.68300   16.89800   18.24530
      O    O452    11.35700   16.87200   16.09230
      O    O453    14.24300   11.16400   17.51330
      O    O454    11.08900   13.52700   19.90130
      O    O455    18.54700   11.82100   16.75030
      O    O456    18.36300   10.62500   19.35630
      O    O457    15.94800   12.18500   15.53130
      O    O458    11.94000   12.19800   17.92230
      O    O459    16.87900   13.23900   21.26830
      O    O460    13.76900   19.13600   16.35630
      O    O461    12.86800   12.08900   15.56530
      O    O462    10.15900   11.20400   19.42130
      O    O463    12.10200    9.87000   16.73430
      O    O464    12.61700   11.41600   20.33430
      O    O465    17.96800   17.38600   17.09830
      N    N466    13.97600   17.36300   17.86330
      N    N467    15.85900   18.26300   16.72630
      C    C468    10.69700   15.89500   18.21830
      C    C469    11.82700   16.31400   17.30130
      C    C470    11.38000   15.88100   19.57930
      C    C471    12.57200   17.32200   18.15930
      C    C472    17.31100   11.51600   17.40030
      C    C473    17.51000   11.67600   18.90930
      C    C474    16.23300   12.47300   16.89630
      C    C475    16.16900   11.62700   19.65330
      C    C476    14.95700   12.37900   17.73530
      C    C477    12.06200   14.55800   19.89830
      C    C478    16.32600   11.94200   21.13830
      C    C479    14.47500   18.31200   16.94130
      C    C480    14.84200   16.46900   18.48230
      C    C481    16.15900   16.43400   18.26730
      C    C482    16.76100   17.39200   17.31830
      H    H483    10.22700   14.95400   17.91930
      H    H484    12.45900   15.45000   17.06130
      H    H485    10.67900   16.13800   20.38130
      H    H486    12.14500   18.32700   18.05230
      H    H487    17.07100   10.47900   17.13630
      H    H488    18.03100   12.62100   19.10130
      H    H489    16.62400   13.49700   16.94030
      H    H490    15.72500   10.62600   19.57530
      H    H491    14.31100   13.21200   17.43730
      H    H492    12.54300   14.59900   20.88130
      H    H493    12.84100   14.32300   19.16930
      H    H494    15.35000   11.94200   21.63630
      H    H495    16.98300   11.22100   21.63430
      H    H496     8.99700   16.60200   18.86730
      H    H497    10.80200   16.20200   15.65730
      H    H498    14.42400   15.76300   19.18430
      H    H499    18.77800   12.74300   16.95430
      H    H500    17.90100    9.78200   19.21230
      H    H501    15.25300   12.80000   15.24130
      H    H502    16.24000   18.93600   16.06730
      H    H503    16.80300   15.72300   18.76930
      H    H504    16.96400   13.42100   22.21930
      H    H505    12.09700   12.13900   14.96130
      H    H506     9.43000   11.54100   18.85730
      P    P507    12.82700   11.23100   29.19030
      P    P508    11.63100   12.04900   31.75130
      O    O509    12.47900   16.92400   31.79330
      O    O510    15.33600   12.60500   31.38630
      O    O511     9.76700   16.91500   30.51430
      O    O512    11.44100   16.88800   28.36130
      O    O513    14.32800   11.18000   29.78230
      O    O514    11.17400   13.54300   32.17030
      O    O515    18.63200   11.83700   29.01930
      O    O516    18.44700   10.64100   31.62530
      O    O517    16.03200   12.20100   27.80030
      O    O518    12.02400   12.21400   30.19130
      O    O519    16.96300   13.25500   33.53730
      O    O520    13.85300   19.15200   28.62530
      O    O521    12.95200   12.10500   27.83430
      O    O522    10.24300   11.22000   31.69030
      O    O523    12.18600    9.88600   29.00330
      O    O524    12.70100   11.43200   32.60330
      O    O525    18.05200   17.40300   29.36730
      N    N526    14.06000   17.37900   30.13230
      N    N527    15.94300   18.27900   28.99530
      C    C528    10.78200   15.91100   30.48730
      C    C529    11.91100   16.33000   29.57030
      C    C530    11.46400   15.89800   31.84830
      C    C531    12.65600   17.33800   30.42830
      C    C532    17.39500   11.53200   29.66930
      C    C533    17.59400   11.69200   31.17830
      C    C534    16.31700   12.48900   29.16530
      C    C535    16.25300   11.64300   31.92230
      C    C536    15.04200   12.39500   30.00330
      C    C537    12.14600   14.57400   32.16730
      C    C538    16.41000   11.95800   33.40730
      C    C539    14.56000   18.32900   29.21030
      C    C540    14.92600   16.48600   30.75130
      C    C541    16.24300   16.45000   30.53630
      C    C542    16.84500   17.40800   29.58730
      H    H543    10.31100   14.97000   30.18830
      H    H544    12.54300   15.46600   29.33030
      H    H545    10.76300   16.15400   32.65030
      H    H546    12.23000   18.34300   30.32130
      H    H547    17.15600   10.49600   29.40530
      H    H548    18.11500   12.63700   31.37030
      H    H549    16.70800   13.51300   29.20930
      H    H550    15.81000   10.64200   31.84430
      H    H551    14.39500   13.22800   29.70630
      H    H552    12.62800   14.61500   33.15030
      H    H553    12.92500   14.33900   31.43830
      H    H554    15.43500   11.95800   33.90530
      H    H555    17.06700   11.23700   33.90330
      H    H556     9.08100   16.61800   31.13630
      H    H557    10.88600   16.21800   27.92630
      H    H558    14.50800   15.77900   31.45330
      H    H559    18.86200   12.75900   29.22330
      H    H560    17.98500    9.79800   31.48130
      H    H561    15.33700   12.81600   27.51030
      H    H562    16.32400   18.95200   28.33630
      H    H563    16.88700   15.73900   31.03830
      H    H564    17.04900   13.43700   34.48830
      H    H565    12.18100   12.15500   27.23030
      H    H566     9.51400   11.55800   31.12630
      P    P567    12.77400   11.22300   42.24530
      P    P568    11.57800   12.04100   44.80630
      O    O569    12.42600   16.91600   44.84830
      O    O570    15.28300   12.59600   44.44130
      O    O571     9.71400   16.90600   43.56930
      O    O572    11.38800   16.88000   41.41630
      O    O573    14.27400   11.17200   42.83730
      O    O574    11.12100   13.53500   45.22630
      O    O575    18.57800   11.82900   42.07530
      O    O576    18.39400   10.63300   44.68030
      O    O577    15.97900   12.19300   40.85630
      O    O578    11.97100   12.20600   43.24730
      O    O579    16.91000   13.24700   46.59230
      O    O580    13.80000   19.14400   41.68030
      O    O581    12.89900   12.09700   40.89030
      O    O582    10.19000   11.21200   44.74530
      O    O583    12.13300    9.87800   42.05830
      O    O584    12.64800   11.42400   45.65830
      O    O585    17.99900   17.39400   42.42230
      N    N586    14.00700   17.37100   43.18730
      N    N587    15.89000   18.27100   42.05130
      C    C588    10.72900   15.90300   43.54330
      C    C589    11.85800   16.32200   42.62630
      C    C590    11.41100   15.88900   44.90430
      C    C591    12.60300   17.33000   43.48430
      C    C592    17.34200   11.52400   42.72430
      C    C593    17.54100   11.68400   44.23330
      C    C594    16.26400   12.48100   42.22030
      C    C595    16.20000   11.63500   44.97830
      C    C596    14.98800   12.38700   43.05930
      C    C597    12.09300   14.56600   45.22330
      C    C598    16.35700   11.95000   46.46330
      C    C599    14.50600   18.32000   42.26530
      C    C600    14.87300   16.47700   43.80730
      C    C601    16.19000   16.44200   43.59230
      C    C602    16.79200   17.40000   42.64330
      H    H603    10.25800   14.96200   43.24330
      H    H604    12.49000   15.45800   42.38630
      H    H605    10.71000   16.14600   45.70630
      H    H606    12.17600   18.33500   43.37630
      H    H607    17.10300   10.48700   42.46030
      H    H608    18.06200   12.62900   44.42630
      H    H609    16.65500   13.50500   42.26430
      H    H610    15.75700   10.63400   44.90030
      H    H611    14.34200   13.22000   42.76130
      H    H612    12.57400   14.60700   46.20530
      H    H613    12.87200   14.33100   44.49430
      H    H614    15.38100   11.95000   46.96030
      H    H615    17.01400   11.22900   46.95830
      H    H616     9.02800   16.61000   44.19130
      H    H617    10.83300   16.21000   40.98130
      H    H618    14.45500   15.77100   44.50830
      H    H619    18.80900   12.75100   42.27830
      H    H620    17.93200    9.79000   44.53630
      H    H621    15.28400   12.80800   40.56630
      H    H622    16.27100   18.94400   41.39230
      H    H623    16.83400   15.73100   44.09330
      H    H624    16.99600   13.42900   47.54330
      H    H625    12.12800   12.14700   40.28530
      H    H626     9.46100   11.55000   44.18230
      O    O627    -6.00802   -7.35262   -1.61876
      H    H628    -6.08861   -8.26716   -1.88959
      H    H629    -6.42157   -6.85591   -2.32479
      O    O630    -7.87621   -5.57471    0.26216
      H    H631    -8.65200   -6.05467    0.55202
      H    H632    -7.22492   -6.25415    0.08778
      O    O633    -3.85547   -1.16870   -0.95792
      H    H634    -4.31732   -1.93997   -0.62921
      H    H635    -3.04291   -1.14209   -0.45268
      O    O636    -7.62914    1.11711   -1.33752
      H    H637    -8.24799    1.57286   -1.90808
      H    H638    -6.77396    1.27225   -1.73855
      O    O639    -8.43531   -2.89900    0.26918
      H    H640    -8.50449   -3.84000    0.10809
      H    H641    -7.67333   -2.80885    0.84144
      O    O642    -6.76280   -3.99897   -3.94433
      H    H643    -7.38108   -3.53403   -4.50806
      H    H644    -6.25048   -3.30622   -3.52738
      O    O645    -1.76996   -1.03936    2.46441
      H    H646    -2.45361   -0.36945    2.45608
      H    H647    -1.23053   -0.84130    1.69890
      O    O648    -4.23408    0.80505    1.17893
      H    H649    -4.22137    0.40128    0.31115
      H    H650    -4.78656    1.57978    1.07507
      O    O651    -2.93954   -2.47333   -3.73206
      H    H652    -3.04991   -3.41589   -3.60711
      H    H653    -2.94272   -2.11176   -2.84578
      O    O654    -4.83554   -4.29197    2.50719
      H    H655    -4.41866   -4.50595    1.67253
      H    H656    -4.11156   -4.03469    3.07805
      O    O657    -7.39751   -6.84680   -4.37581
      H    H658    -8.32459   -6.91306   -4.14696
      H    H659    -7.24503   -5.90878   -4.49028
      O    O660    -0.88933   -5.89324    2.59881
      H    H661    -1.71747   -5.82393    2.12383
      H    H662    -0.29428   -5.30781    2.13040
      O    O663    -3.36779   -5.28477   -3.87228
      H    H664    -3.98654   -5.62281   -4.51965
      H    H665    -3.38534   -5.92879   -3.16436
      O    O666    -3.92513   -9.10631    3.54430
      H    H667    -4.33801   -8.28094    3.79830
      H    H668    -4.65753   -9.69181    3.35194
      O    O669    -3.23512    0.93962    4.23240
      H    H670    -3.71206    1.74684    4.03966
      H    H671    -3.91894    0.28745    4.38502
      O    O672    -5.19132   -6.04608   -6.86501
      H    H673    -4.75199   -6.88384   -7.01122
      H    H674    -4.47847   -5.41314   -6.77859
      O    O675    -7.08178   -1.10648   -2.89688
      H    H676    -6.64219   -0.36404   -3.31134
      H    H677    -7.14309   -0.86382   -1.97299
      O    O678     0.34480    0.70082    9.30154
      H    H679     0.82077    1.17910    9.98044
      H    H680     0.96552    0.63256    8.57609
      O    O681    -0.25187   -2.10790    6.46154
      H    H682    -0.12557   -2.34671    5.54326
      H    H683    -0.20974   -2.93945    6.93375
      O    O684    -6.39020    1.59490    5.03102
      H    H685    -5.87573    1.50570    5.83326
      H    H686    -7.23329    1.94087    5.32381
      O    O687    -4.41476    1.88043   -5.54058
      H    H688    -4.57465    1.59073   -4.64240
      H    H689    -4.58009    1.10445   -6.07606
      O    O690    -4.71215   -0.61081   -6.98078
      H    H691    -5.40563   -0.61308   -7.64055
      H    H692    -3.96986   -1.03488   -7.41136
      O    O693    -5.14715    1.01546   -2.90593
      H    H694    -4.69146    0.23440   -2.59207
      H    H695    -4.80790    1.72614   -2.36181
      O    O696    -6.24262   -8.49439    8.12228
      H    H697    -5.91728   -9.32802    7.78250
      H    H698    -5.45459   -7.97154    8.27011
      O    O699    -5.60382   -8.95262   -4.38361
      H    H700    -6.20293   -8.22904   -4.56725
      H    H701    -5.05586   -9.01494   -5.16597
      O    O702    -6.41182   -7.72569    1.74179
      H    H703    -7.14371   -7.21701    2.09080
      H    H704    -6.80939   -8.54270    1.44067
      O    O705    -2.59637   -4.74660    0.60133
      H    H706    -1.87646   -4.25107    0.21094
      H    H707    -2.79819   -5.42481   -0.04328
      O    O708    -7.21449   -4.67569    6.48823
      H    H709    -7.28076   -5.59612    6.23399
      H    H710    -7.84398   -4.57815    7.20269
      O    O711    -4.42054   -8.98084   -6.95952
      H    H712    -3.53258   -8.66911   -7.13438
      H    H713    -4.45003   -9.85361   -7.35146
      O    O714    -8.42448   -2.80847   -6.28070
      H    H715    -8.08291   -2.06424   -6.77637
      H    H716    -9.25321   -2.49535   -5.91822
      O    O717    -7.28282   -1.85363    6.23861
      H    H718    -7.26837   -2.78554    6.02050
      H    H719    -7.99031   -1.76766    6.87759
      O    O720    -2.14911   -7.66965   -7.49153
      H    H721    -2.23274   -7.23823   -8.34189
      H    H722    -1.42969   -7.20982   -7.05885
      O    O723    -1.07170   -5.21290    5.58547
      H    H724    -1.79688   -4.62002    5.38841
      H    H725    -0.54415   -5.22055    4.78680
      O    O726    -1.12039   -0.81543   -4.76332
      H    H727    -1.76277   -1.46986   -4.48894
      H    H728    -1.50732   -0.40992   -5.53925
      O    O729    -5.54174   -3.48688   -0.91615
      H    H730    -5.18936   -4.08407   -1.57601
      H    H731    -6.42551   -3.81246   -0.74532
      O    O732    -7.84943   -0.21188    3.33266
      H    H733    -7.20521   -0.00594    4.01000
      H    H734    -7.48649   -0.97304    2.87974
      O    O735    -6.57622   -2.20864    2.05040
      H    H736    -5.93400   -2.90933    2.16362
      H    H737    -6.05129   -1.42880    1.87009
      O    O738    -2.73065   -1.92378   -8.22568
      H    H739    -2.95689   -2.64074   -7.63322
      H    H740    -3.12103   -2.17254   -9.06351
      O    O741    -4.80246   -1.40915    5.25401
      H    H742    -4.46684   -0.82248    5.93180
      H    H743    -5.72243   -1.53988    5.48379
      O    O744    -3.14902   -4.00659   -6.56427
      H    H745    -3.43685   -3.54532   -5.77648
      H    H746    -2.35381   -4.46681   -6.29584
      O    O747    -7.94622   -0.45115   -7.97135
      H    H748    -7.84503   -0.65475   -8.90115
      H    H749    -8.84605   -0.70532   -7.76657
      O    O750    -8.79804   -8.47344    4.01029
      H    H751    -8.29952   -7.99886    4.67548
      H    H752    -8.65575   -9.39709    4.21730
      O    O753    -3.29916   -7.01333   -1.70073
      H    H754    -4.24014   -6.99831   -1.52596
      H    H755    -2.98475   -7.79973   -1.25470
      O    O756    -1.29660    0.15756   -0.02531
      H    H757    -1.17186    0.98067    0.44708
      H    H758    -0.43004   -0.05337   -0.37289
      O    O759    -5.98255   -2.45673    8.78251
      H    H760    -6.58874   -2.43357    8.04208
      H    H761    -6.28714   -3.18843    9.31923
      O    O762    -4.55252    1.27130    7.39345
      H    H763    -3.60034    1.18710    7.34347
      H    H764    -4.69969    1.93547    8.06683
      O    O765    -1.66160    0.65072   -7.10736
      H    H766    -1.94745    0.23723   -7.92194
      H    H767    -1.85964    1.57949   -7.22731
      O    O768    -6.95660   -4.29395   -8.06260
      H    H769    -7.50559   -3.84702   -7.41833
      H    H770    -6.33467   -4.79902   -7.53883
      O    O771    -2.90311   -2.93974    7.86962
      H    H772    -2.16216   -2.60216    7.36637
      H    H773    -3.66584   -2.77053    7.31660
      O    O774    -8.77632   -6.31110   -8.91836
      H    H775    -8.25576   -7.02619   -9.28425
      H    H776    -8.12948   -5.67251   -8.61831
      O    O777    -4.22854   -4.88826    6.40515
      H    H778    -3.81444   -4.73375    7.25419
      H    H779    -5.16344   -4.76273    6.56772
      O    O780    -3.75632   -7.54864    8.40906
      H    H781    -3.17425   -8.30341    8.32111
      H    H782    -3.58015   -7.01790    7.63221
      O    O783    -7.13063   -7.20459    5.75852
      H    H784    -7.01101   -7.80048    6.49801
      H    H785    -6.27123   -7.16762    5.33865
      O    O786    -4.79184   -6.65087    4.33477
      H    H787    -5.31832   -6.12661    3.73129
      H    H788    -4.44870   -6.01813    4.96575
      O    O789    -8.76005    2.60421    5.74918
      H    H790    -8.83418    3.50773    6.05641
      H    H791    -9.66217    2.28540    5.72138
      O    O792    -8.21152    1.77007   -6.62819
      H    H793    -7.31644    2.10856   -6.60631
      H    H794    -8.17976    1.04801   -7.25576
      O    O795    -1.23209    0.30043    6.07843
      H    H796    -1.83189    0.35969    5.33482
      H    H797    -1.10270   -0.63907    6.20812
      O    O798     0.00806   -1.95779   -8.58460
      H    H799    -0.82265   -1.89012   -8.11387
      H    H800     0.18524   -1.06737   -8.88791
      O    O801    -0.53630   -5.21304   -6.08118
      H    H802     0.22560   -4.64337   -5.97521
      H    H803    -0.52086   -5.78032   -5.31035
      O    O804     0.46970   -4.35803   -1.23698
      H    H805     0.84058   -5.14130   -1.64339
      H    H806     1.10989   -3.66912   -1.41525
      O    O807    -2.54692   -2.97437    4.17605
      H    H808    -3.36094   -2.54465    4.43863
      H    H809    -2.13950   -2.36253    3.56295
      O    O810    -0.48438   -4.91960   -8.92392
      H    H811    -0.20949   -4.01171   -9.05200
      H    H812    -0.67330   -4.98335   -7.98773
      O    O813    -0.58784   -6.98270   -3.93098
      H    H814    -0.96348   -7.74991   -4.36285
      H    H815    -1.31753   -6.60043   -3.44349
      O    O816    -1.19788   -7.83555    5.70297
      H    H817    -1.42927   -8.06427    4.80277
      H    H818    -0.93743   -6.91559    5.65746
      O    O819    -1.31275   -8.75695   -0.63026
      H    H820    -0.78900   -9.25069   -1.26124
      H    H821    -0.72681   -8.62192    0.11450
      O    O822    -1.13378   -8.67297    2.89170
      H    H823    -2.08351   -8.70661    3.00620
      H    H824    -0.95248   -7.76295    2.65667
      O    O825    -2.48932    1.77749   -2.29712
      H    H826    -1.89341    1.45595   -2.97368
      H    H827    -2.23150    1.30467   -1.50580
      O    O828     0.37796    1.78468    4.25397
      H    H829    -0.11621    2.18157    3.53669
      H    H830    -0.23071    1.15960    4.64770
      O    O831    -1.93810    2.42702    1.53265
      H    H832    -2.39780    3.17860    1.15845
      H    H833    -2.56685    1.70767    1.47413
      O    O834    -8.76897    1.62669    1.53436
      H    H835    -8.48119    1.37212    0.65766
      H    H836    -8.25665    1.07443    2.12492
      O    O837    -8.70174    2.54830    8.90118
      H    H838    -7.77501    2.31273    8.94478
      H    H839    -8.71670    3.37550    8.41978
      O    O840    -0.46723    2.09086   -4.10140
      H    H841    -0.29201    1.40463   -4.74530
      H    H842    -1.16508    2.61557   -4.49373
      O    O843    -2.13398    1.77529    8.72528
      H    H844    -1.34145    1.28021    8.51788
      H    H845    -1.84067    2.45430    9.33284
      O    O846    12.76633   -7.35262   -1.61876
      H    H847    12.68574   -8.26716   -1.88959
      H    H848    12.35278   -6.85591   -2.32479
      O    O849    10.89814   -5.57471    0.26216
      H    H850    10.12235   -6.05467    0.55202
      H    H851    11.54943   -6.25415    0.08778
      O    O852     4.91472   -5.26273    1.13974
      H    H853     4.08321   -5.51786    1.53939
      H    H854     5.52282   -5.19166    1.87553
      O    O855    14.91888   -1.16870   -0.95792
      H    H856    14.45703   -1.93997   -0.62921
      H    H857    15.73144   -1.14209   -0.45268
      O    O858     4.89485   -1.22872    1.33554
      H    H859     5.19765   -2.11895    1.15656
      H    H860     5.63921   -0.67170    1.10777
      O    O861     1.28722   -7.70198    0.80795
      H    H862     1.85883   -8.46976    0.80831
      H    H863     1.28737   -7.40310   -0.10139
      O    O864    11.14521    1.11711   -1.33752
      H    H865    10.52636    1.57286   -1.90808
      H    H866    12.00039    1.27225   -1.73855
      O    O867    10.33904   -2.89900    0.26918
      H    H868    10.26986   -3.84000    0.10809
      H    H869    11.10102   -2.80885    0.84144
      O    O870     7.34083   -8.75076    0.29034
      H    H871     7.84865   -8.25266    0.93084
      H    H872     7.87215   -9.52724    0.11427
      O    O873    12.01155   -3.99897   -3.94433
      H    H874    11.39327   -3.53403   -4.50806
      H    H875    12.52387   -3.30622   -3.52738
      O    O876     6.87472   -4.47138    2.73403
      H    H877     6.54166   -3.84449    3.37613
      H    H878     7.05139   -3.94520    1.95419
      O    O879     6.08663   -2.50330    4.54895
      H    H880     6.70403   -1.82820    4.26739
      H    H881     5.22594   -2.09451    4.45770
      O    O882     1.37987   -3.31332   -6.57037
      H    H883     1.00266   -2.82461   -7.30188
      H    H884     1.63717   -2.64079   -5.93972
      O    O885    17.00439   -1.03936    2.46441
      H    H886    16.32074   -0.36945    2.45608
      H    H887    17.54382   -0.84130    1.69890
      O    O888    14.54027    0.80505    1.17893
      H    H889    14.55298    0.40128    0.31115
      H    H890    13.98779    1.57978    1.07507
      O    O891    15.83481   -2.47333   -3.73206
      H    H892    15.72444   -3.41589   -3.60711
      H    H893    15.83163   -2.11176   -2.84578
      O    O894    13.93881   -4.29197    2.50719
      H    H895    14.35569   -4.50595    1.67253
      H    H896    14.66279   -4.03469    3.07805
      O    O897    11.37684   -6.84680   -4.37581
      H    H898    10.44976   -6.91306   -4.14696
      H    H899    11.52932   -5.90878   -4.49028
      O    O900    17.88502   -5.89324    2.59881
      H    H901    17.05688   -5.82393    2.12383
      H    H902    18.48007   -5.30781    2.13040
      O    O903    15.40656   -5.28477   -3.87228
      H    H904    14.78781   -5.62281   -4.51965
      H    H905    15.38901   -5.92879   -3.16436
      O    O906    14.84922   -9.10631    3.54430
      H    H907    14.43634   -8.28094    3.79830
      H    H908    14.11682   -9.69181    3.35194
      O    O909     6.98250   -6.32032   -1.59383
      H    H910     6.57820   -7.03260   -2.08924
      H    H911     7.06881   -6.66500   -0.70503
      O    O912     7.45067   -2.63357    0.57009
      H    H913     7.15350   -3.23902   -0.10913
      H    H914     8.40065   -2.59583    0.45902
      O    O915     5.69536   -9.54600    2.18607
      H    H916     6.24682   -9.43647    1.41140
      H    H917     6.20971   -9.17224    2.90159
      O    O918    15.53923    0.93962    4.23240
      H    H919    15.06229    1.74684    4.03966
      H    H920    14.85541    0.28745    4.38502
      O    O921     6.54251   -2.89540    7.22087
      H    H922     5.64537   -2.67140    7.46821
      H    H923     6.56780   -2.77190    6.27201
      O    O924    13.58303   -6.04608   -6.86501
      H    H925    14.02236   -6.88384   -7.01122
      H    H926    14.29588   -5.41314   -6.77859
      O    O927     5.36963   -6.02406    5.79660
      H    H928     5.23041   -5.15178    6.16534
      H    H929     4.48777   -6.36678    5.65140
      O    O930    11.69257   -1.10648   -2.89688
      H    H931    12.13216   -0.36404   -3.31134
      H    H932    11.63126   -0.86382   -1.97299
      O    O933     7.16767   -0.08189    8.00512
      H    H934     7.13921    0.32240    7.13796
      H    H935     7.00417   -1.01086    7.84228
      O    O936     3.68296   -7.42582   -4.09317
      H    H937     3.56272   -6.69961   -4.70504
      H    H938     3.37305   -8.19553   -4.57038
      O    O939    19.11915    0.70082    9.30154
      H    H940    19.59512    1.17910    9.98044
      H    H941    19.73987    0.63256    8.57609
      O    O942     1.32150   -4.25431    1.71370
      H    H943     1.39954   -4.11943    0.76927
      H    H944     1.93567   -4.96272    1.90651
      O    O945     2.56626   -2.55429   -1.87569
      H    H946     2.15907   -2.41283   -2.73033
      H    H947     3.45756   -2.83827   -2.07857
      O    O948    18.52248   -2.10790    6.46154
      H    H949    18.64878   -2.34671    5.54326
      H    H950    18.56461   -2.93945    6.93375
      O    O951    12.38415    1.59490    5.03102
      H    H952    12.89862    1.50570    5.83326
      H    H953    11.54106    1.94087    5.32381
      O    O954    14.35959    1.88043   -5.54058
      H    H955    14.19970    1.59073   -4.64240
      H    H956    14.19426    1.10445   -6.07606
      O    O957     6.83843    1.66029   -3.76342
      H    H958     6.66268    0.74384   -3.97664
      H    H959     5.98400    2.01902   -3.52364
      O    O960    14.06220   -0.61081   -6.98078
      H    H961    13.36872   -0.61308   -7.64055
      H    H962    14.80449   -1.03488   -7.41136
      O    O963    13.62720    1.01546   -2.90593
      H    H964    14.08289    0.23440   -2.59207
      H    H965    13.96645    1.72614   -2.36181
      O    O966     1.37745   -3.21289    4.25314
      H    H967     1.54056   -3.68236    3.43508
      H    H968     1.84270   -3.72054    4.91803
      O    O969    12.53173   -8.49439    8.12228
      H    H970    12.85707   -9.32802    7.78250
      H    H971    13.31976   -7.97154    8.27011
      O    O972     5.94075   -8.95896   -2.98268
      H    H973     5.71484   -9.17524   -2.07801
      H    H974     5.16000   -8.52611   -3.32808
      O    O975    13.17053   -8.95262   -4.38361
      H    H976    12.57142   -8.22904   -4.56725
      H    H977    13.71849   -9.01494   -5.16597
      O    O978     8.38067   -8.06040    7.68335
      H    H979     8.28503   -9.00093    7.53339
      H    H980     9.22387   -7.83889    7.28816
      O    O981    12.36253   -7.72569    1.74179
      H    H982    11.63064   -7.21701    2.09080
      H    H983    11.96496   -8.54270    1.44067
      O    O984     7.87443   -7.73895   -7.46395
      H    H985     7.30612   -8.18713   -8.09036
      H    H986     8.58333   -7.37967   -7.99744
      O    O987     2.95135   -3.83775    6.41272
      H    H988     2.56683   -4.47838    7.01102
      H    H989     3.26257   -3.13414    6.98220
      O    O990     9.10106   -6.99010    1.89358
      H    H991     9.46808   -7.46424    2.63972
      H    H992     8.91157   -6.11594    2.23442
      O    O993     6.89100   -7.94923    4.21201
      H    H994     6.58671   -7.07003    4.43704
      H    H995     7.84565   -7.88925    4.24775
      O    O996     5.41918   -3.74313   -5.19131
      H    H997     4.64541   -4.28337   -5.35144
      H    H998     6.14864   -4.26247   -5.52953
      O    O999    16.17798   -4.74660    0.60133
      H    H1000    16.89789   -4.25107    0.21094
      H    H1001    15.97616   -5.42481   -0.04328
      O    O1002    11.55986   -4.67569    6.48823
      H    H1003    11.49359   -5.59612    6.23399
      H    H1004    10.93037   -4.57815    7.20269
      O    O1005    14.35381   -8.98084   -6.95952
      H    H1006    15.24177   -8.66911   -7.13438
      H    H1007    14.32432   -9.85361   -7.35146
      O    O1008     5.46292   -4.07509   -1.55343
      H    H1009     5.98079   -4.87827   -1.60774
      H    H1010     5.01132   -4.13718   -0.71175
      O    O1011    10.34987   -2.80847   -6.28070
      H    H1012    10.69144   -2.06424   -6.77637
      H    H1013     9.52114   -2.49535   -5.91822
      O    O1014     2.94737   -7.10896    5.35914
      H    H1015     2.58887   -6.44357    5.94648
      H    H1016     2.65283   -7.94060    5.73040
      O    O1017     6.14869   -6.65053    8.24310
      H    H1018     5.84870   -6.50482    7.34588
      H    H1019     6.91981   -7.21000    8.15044
      O    O1020    11.49153   -1.85363    6.23861
      H    H1021    11.50598   -2.78554    6.02050
      H    H1022    10.78404   -1.76766    6.87759
      O    O1023    16.62524   -7.66965   -7.49153
      H    H1024    16.54161   -7.23823   -8.34189
      H    H1025    17.34466   -7.20982   -7.05885
      O    O1026    17.70265   -5.21290    5.58547
      H    H1027    16.97747   -4.62002    5.38841
      H    H1028    18.23020   -5.22055    4.78680
      O    O1029    17.65396   -0.81543   -4.76332
      H    H1030    17.01158   -1.46986   -4.48894
      H    H1031    17.26703   -0.40992   -5.53925
      O    O1032    13.23261   -3.48688   -0.91615
      H    H1033    13.58499   -4.08407   -1.57601
      H    H1034    12.34884   -3.81246   -0.74532
      O    O1035     9.31894   -2.72711   -3.50911
      H    H1036    10.00605   -2.18019   -3.12835
      H    H1037     8.53218   -2.18304   -3.47415
      O    O1038     1.45818   -7.10983   -8.01740
      H    H1039     2.32766   -6.82735   -7.73381
      H    H1040     0.96721   -6.29624   -8.13252
      O    O1041     8.62166   -5.72251   -3.89657
      H    H1042     9.07794   -4.91199   -3.67055
      H    H1043     8.27048   -6.04020   -3.06472
      O    O1044    10.92492   -0.21188    3.33266
      H    H1045    11.56914   -0.00594    4.01000
      H    H1046    11.28786   -0.97304    2.87974
      O    O1047    12.19813   -2.20864    2.05040
      H    H1048    12.84035   -2.90933    2.16362
      H    H1049    12.72306   -1.42880    1.87009
      O    O1050    16.04370   -1.92378   -8.22568
      H    H1051    15.81746   -2.64074   -7.63322
      H    H1052    15.65332   -2.17254   -9.06351
      O    O1053    13.97189   -1.40915    5.25401
      H    H1054    14.30751   -0.82248    5.93180
      H    H1055    13.05192   -1.53988    5.48379
      O    O1056     1.82530    2.10291   -7.45124
      H    H1057     2.18507    2.70184   -8.10551
      H    H1058     1.68454    2.64890   -6.67773
      O    O1059    15.62533   -4.00659   -6.56427
      H    H1060    15.33750   -3.54532   -5.77648
      H    H1061    16.42054   -4.46681   -6.29584
      O    O1062     1.80949    0.36839    7.02300
      H    H1063     1.91860   -0.57213    6.88254
      H    H1064     1.15755    0.63387    6.37438
      O    O1065     9.80075   -1.36002    8.42282
      H    H1066     9.48044   -2.07909    8.96739
      H    H1067     9.12658   -0.68451    8.49642
      O    O1068     7.84217   -0.51397   -6.63387
      H    H1069     7.83318    0.21900   -7.24942
      H    H1070     6.92200   -0.76082   -6.54117
      O    O1071     3.44283   -5.29248   -5.88919
      H    H1072     2.83562   -4.55259   -5.87966
      H    H1073     3.91776   -5.20255   -6.71537
      O    O1074    10.82813   -0.45115   -7.97135
      H    H1075    10.92932   -0.65475   -8.90115
      H    H1076     9.92830   -0.70532   -7.76657
      O    O1077     9.97631   -8.47344    4.01029
      H    H1078    10.47483   -7.99886    4.67548
      H    H1079    10.11860   -9.39709    4.21730
      O    O1080     9.46994    2.06748   -3.27658
      H    H1081     9.72409    2.02962   -4.19865
      H    H1082     8.52118    1.94082   -3.28376
      O    O1083    15.47519   -7.01333   -1.70073
      H    H1084    14.53421   -6.99831   -1.52596
      H    H1085    15.78960   -7.79973   -1.25470
      O    O1086     5.45336   -5.33137   -8.14034
      H    H1087     6.21969   -5.44323   -7.57779
      H    H1088     5.53083   -6.02757   -8.79266
      O    O1089     4.14803   -7.89886   -7.45705
      H    H1090     4.22839   -8.84611   -7.34531
      H    H1091     5.04001   -7.56817   -7.35098
      O    O1092    17.47775    0.15756   -0.02531
      H    H1093    17.60249    0.98067    0.44708
      H    H1094    18.34431   -0.05337   -0.37289
      O    O1095     4.94951    2.25068   -0.35359
      H    H1096     5.68575    1.70222   -0.08274
      H    H1097     5.33360    3.11628   -0.49299
      O    O1098     1.83405   -1.68197   -4.47944
      H    H1099     0.90803   -1.43985   -4.48890
      H    H1100     2.29970   -0.85454   -4.60097
      O    O1101     3.95533    1.43528    8.83497
      H    H1102     4.75661    1.75649    9.24851
      H    H1103     3.44052    1.07484    9.55696
      O    O1104     8.05974    1.42371   -8.53104
      H    H1105     8.85260    1.71259   -8.98286
      H    H1106     7.54017    0.99292   -9.20979
      O    O1107    12.79180   -2.45673    8.78251
      H    H1108    12.18561   -2.43357    8.04208
      H    H1109    12.48721   -3.18843    9.31923
      O    O1110    14.22183    1.27130    7.39345
      H    H1111    15.17401    1.18710    7.34347
      H    H1112    14.07466    1.93547    8.06683
      O    O1113    17.11275    0.65072   -7.10736
      H    H1114    16.82690    0.23723   -7.92194
      H    H1115    16.91471    1.57949   -7.22731
      O    O1116     1.67511   -6.07737    7.77857
      H    H1117     2.17902   -6.65664    8.35019
      H    H1118     0.93586   -5.79335    8.31621
      O    O1119     8.57748   -3.35595   -8.66680
      H    H1120     8.47254   -3.97072   -7.94066
      H    H1121     8.40990   -3.87936   -9.45050
      O    O1122     8.72891   -4.67027    7.31212
      H    H1123     7.96348   -4.10177    7.22759
      H    H1124     8.91050   -4.96265    6.41895
      O    O1125    11.81775   -4.29395   -8.06260
      H    H1126    11.26876   -3.84702   -7.41833
      H    H1127    12.43968   -4.79902   -7.53883
      O    O1128    15.87124   -2.93974    7.86962
      H    H1129    16.61219   -2.60216    7.36637
      H    H1130    15.10851   -2.77053    7.31660
      O    O1131     3.70742   -7.93441    8.67358
      H    H1132     3.74796   -8.23302    9.58210
      H    H1133     4.56197   -7.53365    8.51433
      O    O1134     7.48526   -5.33486   -6.16607
      H    H1135     7.90690   -5.50087   -5.32293
      H    H1136     7.61035   -6.14483   -6.66056
      O    O1137     5.64800   -9.35520    6.64103
      H    H1138     5.11765   -9.84611    6.01336
      H    H1139     6.31681   -8.92678    6.10682
      O    O1140     9.99803   -6.31110   -8.91836
      H    H1141    10.51859   -7.02619   -9.28425
      H    H1142    10.64487   -5.67251   -8.61831
      O    O1143    14.54581   -4.88826    6.40515
      H    H1144    14.95991   -4.73375    7.25419
      H    H1145    13.61091   -4.76273    6.56772
      O    O1146    15.01803   -7.54864    8.40906
      H    H1147    15.60010   -8.30341    8.32111
      H    H1148    15.19420   -7.01790    7.63221
      O    O1149     9.30733   -4.93621    4.37474
      H    H1150     9.72614   -4.09293    4.20236
      H    H1151     8.38820   -4.79900    4.14542
      O    O1152    11.64372   -7.20459    5.75852
      H    H1153    11.76334   -7.80048    6.49801
      H    H1154    12.50312   -7.16762    5.33865
      O    O1155    13.98251   -6.65087    4.33477
      H    H1156    13.45603   -6.12661    3.73129
      H    H1157    14.32565   -6.01813    4.96575
      O    O1158     7.15807    1.36909    5.49051
      H    H1159     6.62018    2.09370    5.17138
      H    H1160     7.41147    0.89213    4.70025
      O    O1161    10.01430    2.60421    5.74918
      H    H1162     9.94017    3.50773    6.05641
      H    H1163     9.11218    2.28540    5.72138
      O    O1164    10.56283    1.77007   -6.62819
      H    H1165    11.45791    2.10856   -6.60631
      H    H1166    10.59459    1.04801   -7.25576
      O    O1167     4.20244   -2.85723   -8.39949
      H    H1168     4.63993   -2.31426   -7.74373
      H    H1169     4.68722   -3.68253   -8.38985
      O    O1170     1.41702   -0.06833   -0.94746
      H    H1171     1.74733   -0.93622   -1.17960
      H    H1172     1.84612    0.13753   -0.11697
      O    O1173     6.01322   -1.73743   -3.28726
      H    H1174     5.71277   -1.86093   -2.38687
      H    H1175     5.90697   -2.59657   -3.69569
      O    O1176     1.90605    0.79873    1.79070
      H    H1177     1.46914    0.97881    2.62312
      H    H1178     2.47381    1.55619    1.64887
      O    O1179    17.54226    0.30043    6.07843
      H    H1180    16.94246    0.35969    5.33482
      H    H1181    17.67165   -0.63907    6.20812
      O    O1182    18.78241   -1.95779   -8.58460
      H    H1183    17.95170   -1.89012   -8.11387
      H    H1184    18.95959   -1.06737   -8.88791
      O    O1185    18.23805   -5.21304   -6.08118
      H    H1186    18.99995   -4.64337   -5.97521
      H    H1187    18.25349   -5.78032   -5.31035
      O    O1188     1.73849   -6.68924   -1.85041
      H    H1189     1.08337   -6.95808   -2.49444
      H    H1190     2.57628   -6.79880   -2.30021
      O    O1191    19.24405   -4.35803   -1.23698
      H    H1192    19.61493   -5.14130   -1.64339
      H    H1193    19.88424   -3.66912   -1.41525
      O    O1194    16.22743   -2.97437    4.17605
      H    H1195    15.41341   -2.54465    4.43863
      H    H1196    16.63485   -2.36253    3.56295
      O    O1197    18.28997   -4.91960   -8.92392
      H    H1198    18.56486   -4.01171   -9.05200
      H    H1199    18.10105   -4.98335   -7.98773
      O    O1200    18.18651   -6.98270   -3.93098
      H    H1201    17.81087   -7.74991   -4.36285
      H    H1202    17.45682   -6.60043   -3.44349
      O    O1203     2.77608   -6.30399    2.68992
      H    H1204     3.14339   -6.39125    3.56953
      H    H1205     2.20716   -7.06733    2.59061
      O    O1206    17.57647   -7.83555    5.70297
      H    H1207    17.34508   -8.06427    4.80277
      H    H1208    17.83692   -6.91559    5.65746
      O    O1209     2.32768   -9.39308    6.59577
      H    H1210     1.43329   -9.42640    6.93514
      H    H1211     2.86744   -9.19440    7.36089
      O    O1212     0.95230   -9.47935   -5.90788
      H    H1213     0.04870   -9.21633   -6.08271
      H    H1214     1.43636   -9.20823   -6.68788
      O    O1215    17.46160   -8.75695   -0.63026
      H    H1216    17.98535   -9.25069   -1.26124
      H    H1217    18.04754   -8.62192    0.11450
      O    O1218    17.64057   -8.67297    2.89170
      H    H1219    16.69084   -8.70661    3.00620
      H    H1220    17.82187   -7.76295    2.65667
      O    O1221    16.28503    1.77749   -2.29712
      H    H1222    16.88094    1.45595   -2.97368
      H    H1223    16.54285    1.30467   -1.50580
      O    O1224     4.19129   -1.79072    7.85194
      H    H1225     4.14825   -2.16143    8.73338
      H    H1226     4.32239   -0.85296    7.99212
      O    O1227     7.89189   -0.23476    3.45291
      H    H1228     7.65103    0.03270    2.56596
      H    H1229     8.83216   -0.06419    3.50800
      O    O1230    19.15231    1.78468    4.25397
      H    H1231    18.65814    2.18157    3.53669
      H    H1232    18.54364    1.15960    4.64770
      O    O1233     4.03009    1.15551    4.97172
      H    H1234     3.43612    1.02398    5.71072
      H    H1235     4.02248    0.31932    4.50593
      O    O1236    16.83625    2.42702    1.53265
      H    H1237    16.37655    3.17860    1.15845
      H    H1238    16.20750    1.70767    1.47413
      O    O1239     3.66132   -1.47866    3.92252
      H    H1240     2.93472   -2.09813    3.85512
      H    H1241     3.72223   -1.08459    3.05233
      O    O1242     7.26583    0.73584    0.70746
      H    H1243     7.78233    0.12458    0.18229
      H    H1244     7.91556    1.23872    1.19856
      O    O1245    10.00538    1.62669    1.53436
      H    H1246    10.29316    1.37212    0.65766
      H    H1247    10.51770    1.07443    2.12492
      O    O1248     1.94432    1.83878   -2.86780
      H    H1249     1.77652    1.20585   -2.16961
      H    H1250     1.07777    2.04472   -3.21838
      O    O1251     3.55059    0.53211   -5.42279
      H    H1252     3.02535    0.91291   -6.12659
      H    H1253     3.47504    1.15718   -4.70182
      O    O1254    10.07261    2.54830    8.90118
      H    H1255    10.99934    2.31273    8.94478
      H    H1256    10.05765    3.37550    8.41978
      O    O1257    18.30712    2.09086   -4.10140
      H    H1258    18.48234    1.40463   -4.74530
      H    H1259    17.60927    2.61557   -4.49373
      O    O1260     6.14988    2.48034   -6.54786
      H    H1261     6.88176    2.19627   -7.09548
      H    H1262     6.40925    2.24167   -5.65793
      O    O1263     5.31136   -1.40318   -6.54323
      H    H1264     4.68225   -0.93467   -5.99465
      H    H1265     5.42614   -2.24826   -6.10861
      O    O1266    16.64037    1.77529    8.72528
      H    H1267    17.43290    1.28021    8.51788
      H    H1268    16.93368    2.45430    9.33284
      O    O1269    31.54068   -7.35262   -1.61876
      H    H1270    31.46009   -8.26716   -1.88959
      H    H1271    31.12713   -6.85591   -2.32479
      O    O1272    29.67249   -5.57471    0.26216
      H    H1273    28.89670   -6.05467    0.55202
      H    H1274    30.32378   -6.25415    0.08778
      O    O1275    23.68907   -5.26273    1.13974
      H    H1276    22.85756   -5.51786    1.53939
      H    H1277    24.29717   -5.19166    1.87553
      O    O1278    33.69323   -1.16870   -0.95792
      H    H1279    33.23138   -1.93997   -0.62921
      H    H1280    34.50579   -1.14209   -0.45268
      O    O1281    23.66920   -1.22872    1.33554
      H    H1282    23.97200   -2.11895    1.15656
      H    H1283    24.41356   -0.67170    1.10777
      O    O1284    20.06157   -7.70198    0.80795
      H    H1285    20.63318   -8.46976    0.80831
      H    H1286    20.06172   -7.40310   -0.10139
      O    O1287    29.91956    1.11711   -1.33752
      H    H1288    29.30071    1.57286   -1.90808
      H    H1289    30.77474    1.27225   -1.73855
      O    O1290    29.11339   -2.89900    0.26918
      H    H1291    29.04421   -3.84000    0.10809
      H    H1292    29.87537   -2.80885    0.84144
      O    O1293    26.11518   -8.75076    0.29034
      H    H1294    26.62300   -8.25266    0.93084
      H    H1295    26.64650   -9.52724    0.11427
      O    O1296    30.78590   -3.99897   -3.94433
      H    H1297    30.16762   -3.53403   -4.50806
      H    H1298    31.29822   -3.30622   -3.52738
      O    O1299    25.64907   -4.47138    2.73403
      H    H1300    25.31601   -3.84449    3.37613
      H    H1301    25.82574   -3.94520    1.95419
      O    O1302    24.86098   -2.50330    4.54895
      H    H1303    25.47838   -1.82820    4.26739
      H    H1304    24.00029   -2.09451    4.45770
      O    O1305    20.15422   -3.31332   -6.57037
      H    H1306    19.77701   -2.82461   -7.30188
      H    H1307    20.41152   -2.64079   -5.93972
      O    O1308    35.77874   -1.03936    2.46441
      H    H1309    35.09509   -0.36945    2.45608
      H    H1310    36.31817   -0.84130    1.69890
      O    O1311    33.31462    0.80505    1.17893
      H    H1312    33.32733    0.40128    0.31115
      H    H1313    32.76214    1.57978    1.07507
      O    O1314    34.60916   -2.47333   -3.73206
      H    H1315    34.49879   -3.41589   -3.60711
      H    H1316    34.60598   -2.11176   -2.84578
      O    O1317    32.71316   -4.29197    2.50719
      H    H1318    33.13004   -4.50595    1.67253
      H    H1319    33.43714   -4.03469    3.07805
      O    O1320    30.15119   -6.84680   -4.37581
      H    H1321    29.22411   -6.91306   -4.14696
      H    H1322    30.30367   -5.90878   -4.49028
      O    O1323    36.65937   -5.89324    2.59881
      H    H1324    35.83123   -5.82393    2.12383
      H    H1325    37.25442   -5.30781    2.13040
      O    O1326    34.18091   -5.28477   -3.87228
      H    H1327    33.56216   -5.62281   -4.51965
      H    H1328    34.16336   -5.92879   -3.16436
      O    O1329    33.62357   -9.10631    3.54430
      H    H1330    33.21069   -8.28094    3.79830
      H    H1331    32.89117   -9.69181    3.35194
      O    O1332    25.75685   -6.32032   -1.59383
      H    H1333    25.35255   -7.03260   -2.08924
      H    H1334    25.84316   -6.66500   -0.70503
      O    O1335    26.22502   -2.63357    0.57009
      H    H1336    25.92785   -3.23902   -0.10913
      H    H1337    27.17500   -2.59583    0.45902
      O    O1338    24.46971   -9.54600    2.18607
      H    H1339    25.02117   -9.43647    1.41140
      H    H1340    24.98406   -9.17224    2.90159
      O    O1341    34.31358    0.93962    4.23240
      H    H1342    33.83664    1.74684    4.03966
      H    H1343    33.62976    0.28745    4.38502
      O    O1344    25.31686   -2.89540    7.22087
      H    H1345    24.41972   -2.67140    7.46821
      H    H1346    25.34215   -2.77190    6.27201
      O    O1347    32.35738   -6.04608   -6.86501
      H    H1348    32.79671   -6.88384   -7.01122
      H    H1349    33.07023   -5.41314   -6.77859
      O    O1350    24.14398   -6.02406    5.79660
      H    H1351    24.00476   -5.15178    6.16534
      H    H1352    23.26212   -6.36678    5.65140
      O    O1353    30.46692   -1.10648   -2.89688
      H    H1354    30.90651   -0.36404   -3.31134
      H    H1355    30.40561   -0.86382   -1.97299
      O    O1356    25.94202   -0.08189    8.00512
      H    H1357    25.91356    0.32240    7.13796
      H    H1358    25.77852   -1.01086    7.84228
      O    O1359    22.45731   -7.42582   -4.09317
      H    H1360    22.33707   -6.69961   -4.70504
      H    H1361    22.14740   -8.19553   -4.57038
      O    O1362    37.89350    0.70082    9.30154
      H    H1363    38.36947    1.17910    9.98044
      H    H1364    38.51422    0.63256    8.57609
      O    O1365    20.09585   -4.25431    1.71370
      H    H1366    20.17389   -4.11943    0.76927
      H    H1367    20.71002   -4.96272    1.90651
      O    O1368    21.34061   -2.55429   -1.87569
      H    H1369    20.93342   -2.41283   -2.73033
      H    H1370    22.23191   -2.83827   -2.07857
      O    O1371    37.29683   -2.10790    6.46154
      H    H1372    37.42313   -2.34671    5.54326
      H    H1373    37.33896   -2.93945    6.93375
      O    O1374    31.15850    1.59490    5.03102
      H    H1375    31.67297    1.50570    5.83326
      H    H1376    30.31541    1.94087    5.32381
      O    O1377    33.13394    1.88043   -5.54058
      H    H1378    32.97405    1.59073   -4.64240
      H    H1379    32.96861    1.10445   -6.07606
      O    O1380    25.61278    1.66029   -3.76342
      H    H1381    25.43703    0.74384   -3.97664
      H    H1382    24.75835    2.01902   -3.52364
      O    O1383    32.83655   -0.61081   -6.98078
      H    H1384    32.14307   -0.61308   -7.64055
      H    H1385    33.57884   -1.03488   -7.41136
      O    O1386    32.40155    1.01546   -2.90593
      H    H1387    32.85724    0.23440   -2.59207
      H    H1388    32.74080    1.72614   -2.36181
      O    O1389    20.15180   -3.21289    4.25314
      H    H1390    20.31491   -3.68236    3.43508
      H    H1391    20.61705   -3.72054    4.91803
      O    O1392    31.30608   -8.49439    8.12228
      H    H1393    31.63142   -9.32802    7.78250
      H    H1394    32.09411   -7.97154    8.27011
      O    O1395    24.71510   -8.95896   -2.98268
      H    H1396    24.48919   -9.17524   -2.07801
      H    H1397    23.93435   -8.52611   -3.32808
      O    O1398    31.94488   -8.95262   -4.38361
      H    H1399    31.34577   -8.22904   -4.56725
      H    H1400    32.49284   -9.01494   -5.16597
      O    O1401    27.15502   -8.06040    7.68335
      H    H1402    27.05938   -9.00093    7.53339
      H    H1403    27.99822   -7.83889    7.28816
      O    O1404    31.13688   -7.72569    1.74179
      H    H1405    30.40499   -7.21701    2.09080
      H    H1406    30.73931   -8.54270    1.44067
      O    O1407    26.64878   -7.73895   -7.46395
      H    H1408    26.08047   -8.18713   -8.09036
      H    H1409    27.35768   -7.37967   -7.99744
      O    O1410    21.72570   -3.83775    6.41272
      H    H1411    21.34118   -4.47838    7.01102
      H    H1412    22.03692   -3.13414    6.98220
      O    O1413    27.87541   -6.99010    1.89358
      H    H1414    28.24243   -7.46424    2.63972
      H    H1415    27.68592   -6.11594    2.23442
      O    O1416    25.66535   -7.94923    4.21201
      H    H1417    25.36106   -7.07003    4.43704
      H    H1418    26.62000   -7.88925    4.24775
      O    O1419    24.19353   -3.74313   -5.19131
      H    H1420    23.41976   -4.28337   -5.35144
      H    H1421    24.92299   -4.26247   -5.52953
      O    O1422    34.95233   -4.74660    0.60133
      H    H1423    35.67224   -4.25107    0.21094
      H    H1424    34.75051   -5.42481   -0.04328
      O    O1425    30.33421   -4.67569    6.48823
      H    H1426    30.26794   -5.59612    6.23399
      H    H1427    29.70472   -4.57815    7.20269
      O    O1428    33.12816   -8.98084   -6.95952
      H    H1429    34.01612   -8.66911   -7.13438
      H    H1430    33.09867   -9.85361   -7.35146
      O    O1431    24.23727   -4.07509   -1.55343
      H    H1432    24.75514   -4.87827   -1.60774
      H    H1433    23.78567   -4.13718   -0.71175
      O    O1434    29.12422   -2.80847   -6.28070
      H    H1435    29.46579   -2.06424   -6.77637
      H    H1436    28.29549   -2.49535   -5.91822
      O    O1437    21.72172   -7.10896    5.35914
      H    H1438    21.36322   -6.44357    5.94648
      H    H1439    21.42718   -7.94060    5.73040
      O    O1440    24.92304   -6.65053    8.24310
      H    H1441    24.62305   -6.50482    7.34588
      H    H1442    25.69416   -7.21000    8.15044
      O    O1443    30.26588   -1.85363    6.23861
      H    H1444    30.28033   -2.78554    6.02050
      H    H1445    29.55839   -1.76766    6.87759
      O    O1446    35.39959   -7.66965   -7.49153
      H    H1447    35.31596   -7.23823   -8.34189
      H    H1448    36.11901   -7.20982   -7.05885
      O    O1449    36.47700   -5.21290    5.58547
      H    H1450    35.75182   -4.62002    5.38841
      H    H1451    37.00455   -5.22055    4.78680
      O    O1452    36.42831   -0.81543   -4.76332
      H    H1453    35.78593   -1.46986   -4.48894
      H    H1454    36.04138   -0.40992   -5.53925
      O    O1455    32.00696   -3.48688   -0.91615
      H    H1456    32.35934   -4.08407   -1.57601
      H    H1457    31.12319   -3.81246   -0.74532
      O    O1458    28.09329   -2.72711   -3.50911
      H    H1459    28.78040   -2.18019   -3.12835
      H    H1460    27.30653   -2.18304   -3.47415
      O    O1461    20.23253   -7.10983   -8.01740
      H    H1462    21.10201   -6.82735   -7.73381
      H    H1463    19.74156   -6.29624   -8.13252
      O    O1464    27.39601   -5.72251   -3.89657
      H    H1465    27.85229   -4.91199   -3.67055
      H    H1466    27.04483   -6.04020   -3.06472
      O    O1467    29.69927   -0.21188    3.33266
      H    H1468    30.34349   -0.00594    4.01000
      H    H1469    30.06221   -0.97304    2.87974
      O    O1470    30.97248   -2.20864    2.05040
      H    H1471    31.61470   -2.90933    2.16362
      H    H1472    31.49741   -1.42880    1.87009
      O    O1473    34.81805   -1.92378   -8.22568
      H    H1474    34.59181   -2.64074   -7.63322
      H    H1475    34.42767   -2.17254   -9.06351
      O    O1476    32.74624   -1.40915    5.25401
      H    H1477    33.08186   -0.82248    5.93180
      H    H1478    31.82627   -1.53988    5.48379
      O    O1479    20.59965    2.10291   -7.45124
      H    H1480    20.95942    2.70184   -8.10551
      H    H1481    20.45889    2.64890   -6.67773
      O    O1482    34.39968   -4.00659   -6.56427
      H    H1483    34.11185   -3.54532   -5.77648
      H    H1484    35.19489   -4.46681   -6.29584
      O    O1485    20.58384    0.36839    7.02300
      H    H1486    20.69295   -0.57213    6.88254
      H    H1487    19.93190    0.63387    6.37438
      O    O1488    28.57510   -1.36002    8.42282
      H    H1489    28.25479   -2.07909    8.96739
      H    H1490    27.90093   -0.68451    8.49642
      O    O1491    26.61652   -0.51397   -6.63387
      H    H1492    26.60753    0.21900   -7.24942
      H    H1493    25.69635   -0.76082   -6.54117
      O    O1494    22.21718   -5.29248   -5.88919
      H    H1495    21.60997   -4.55259   -5.87966
      H    H1496    22.69211   -5.20255   -6.71537
      O    O1497    29.60248   -0.45115   -7.97135
      H    H1498    29.70367   -0.65475   -8.90115
      H    H1499    28.70265   -0.70532   -7.76657
      O    O1500    28.75066   -8.47344    4.01029
      H    H1501    29.24918   -7.99886    4.67548
      H    H1502    28.89295   -9.39709    4.21730
      O    O1503    28.24429    2.06748   -3.27658
      H    H1504    28.49844    2.02962   -4.19865
      H    H1505    27.29553    1.94082   -3.28376
      O    O1506    34.24954   -7.01333   -1.70073
      H    H1507    33.30856   -6.99831   -1.52596
      H    H1508    34.56395   -7.79973   -1.25470
      O    O1509    24.22771   -5.33137   -8.14034
      H    H1510    24.99404   -5.44323   -7.57779
      H    H1511    24.30518   -6.02757   -8.79266
      O    O1512    22.92238   -7.89886   -7.45705
      H    H1513    23.00274   -8.84611   -7.34531
      H    H1514    23.81436   -7.56817   -7.35098
      O    O1515    36.25210    0.15756   -0.02531
      H    H1516    36.37684    0.98067    0.44708
      H    H1517    37.11866   -0.05337   -0.37289
      O    O1518    23.72386    2.25068   -0.35359
      H    H1519    24.46010    1.70222   -0.08274
      H    H1520    24.10795    3.11628   -0.49299
      O    O1521    20.60840   -1.68197   -4.47944
      H    H1522    19.68238   -1.43985   -4.48890
      H    H1523    21.07405   -0.85454   -4.60097
      O    O1524    22.72968    1.43528    8.83497
      H    H1525    23.53096    1.75649    9.24851
      H    H1526    22.21487    1.07484    9.55696
      O    O1527    26.83409    1.42371   -8.53104
      H    H1528    27.62695    1.71259   -8.98286
      H    H1529    26.31452    0.99292   -9.20979
      O    O1530    31.56615   -2.45673    8.78251
      H    H1531    30.95996   -2.43357    8.04208
      H    H1532    31.26156   -3.18843    9.31923
      O    O1533    32.99618    1.27130    7.39345
      H    H1534    33.94836    1.18710    7.34347
      H    H1535    32.84901    1.93547    8.06683
      O    O1536    35.88710    0.65072   -7.10736
      H    H1537    35.60125    0.23723   -7.92194
      H    H1538    35.68906    1.57949   -7.22731
      O    O1539    20.44946   -6.07737    7.77857
      H    H1540    20.95337   -6.65664    8.35019
      H    H1541    19.71021   -5.79335    8.31621
      O    O1542    27.35183   -3.35595   -8.66680
      H    H1543    27.24689   -3.97072   -7.94066
      H    H1544    27.18425   -3.87936   -9.45050
      O    O1545    27.50326   -4.67027    7.31212
      H    H1546    26.73783   -4.10177    7.22759
      H    H1547    27.68485   -4.96265    6.41895
      O    O1548    30.59210   -4.29395   -8.06260
      H    H1549    30.04311   -3.84702   -7.41833
      H    H1550    31.21403   -4.79902   -7.53883
      O    O1551    34.64559   -2.93974    7.86962
      H    H1552    35.38654   -2.60216    7.36637
      H    H1553    33.88286   -2.77053    7.31660
      O    O1554    22.48177   -7.93441    8.67358
      H    H1555    22.52231   -8.23302    9.58210
      H    H1556    23.33632   -7.53365    8.51433
      O    O1557    26.25961   -5.33486   -6.16607
      H    H1558    26.68125   -5.50087   -5.32293
      H    H1559    26.38470   -6.14483   -6.66056
      O    O1560    24.42235   -9.35520    6.64103
      H    H1561    23.89200   -9.84611    6.01336
      H    H1562    25.09116   -8.92678    6.10682
      O    O1563    28.77238   -6.31110   -8.91836
      H    H1564    29.29294   -7.02619   -9.28425
      H    H1565    29.41922   -5.67251   -8.61831
      O    O1566    33.32016   -4.88826    6.40515
      H    H1567    33.73426   -4.73375    7.25419
      H    H1568    32.38526   -4.76273    6.56772
      O    O1569    33.79238   -7.54864    8.40906
      H    H1570    34.37445   -8.30341    8.32111
      H    H1571    33.96855   -7.01790    7.63221
      O    O1572    28.08168   -4.93621    4.37474
      H    H1573    28.50049   -4.09293    4.20236
      H    H1574    27.16255   -4.79900    4.14542
      O    O1575    30.41807   -7.20459    5.75852
      H    H1576    30.53769   -7.80048    6.49801
      H    H1577    31.27747   -7.16762    5.33865
      O    O1578    32.75686   -6.65087    4.33477
      H    H1579    32.23038   -6.12661    3.73129
      H    H1580    33.10000   -6.01813    4.96575
      O    O1581    25.93242    1.36909    5.49051
      H    H1582    25.39453    2.09370    5.17138
      H    H1583    26.18582    0.89213    4.70025
      O    O1584    28.78865    2.60421    5.74918
      H    H1585    28.71452    3.50773    6.05641
      H    H1586    27.88653    2.28540    5.72138
      O    O1587    29.33718    1.77007   -6.62819
      H    H1588    30.23226    2.10856   -6.60631
      H    H1589    29.36894    1.04801   -7.25576
      O    O1590    22.97679   -2.85723   -8.39949
      H    H1591    23.41428   -2.31426   -7.74373
      H    H1592    23.46157   -3.68253   -8.38985
      O    O1593    20.19137   -0.06833   -0.94746
      H    H1594    20.52168   -0.93622   -1.17960
      H    H1595    20.62047    0.13753   -0.11697
      O    O1596    24.78757   -1.73743   -3.28726
      H    H1597    24.48712   -1.86093   -2.38687
      H    H1598    24.68132   -2.59657   -3.69569
      O    O1599    20.68040    0.79873    1.79070
      H    H1600    20.24349    0.97881    2.62312
      H    H1601    21.24816    1.55619    1.64887
      O    O1602    36.31661    0.30043    6.07843
      H    H1603    35.71681    0.35969    5.33482
      H    H1604    36.44600   -0.63907    6.20812
      O    O1605    37.55676   -1.95779   -8.58460
      H    H1606    36.72605   -1.89012   -8.11387
      H    H1607    37.73394   -1.06737   -8.88791
      O    O1608    37.01240   -5.21304   -6.08118
      H    H1609    37.77430   -4.64337   -5.97521
      H    H1610    37.02784   -5.78032   -5.31035
      O    O1611    20.51284   -6.68924   -1.85041
      H    H1612    19.85772   -6.95808   -2.49444
      H    H1613    21.35063   -6.79880   -2.30021
      O    O1614    38.01840   -4.35803   -1.23698
      H    H1615    38.38928   -5.14130   -1.64339
      H    H1616    38.65859   -3.66912   -1.41525
      O    O1617    35.00178   -2.97437    4.17605
      H    H1618    34.18776   -2.54465    4.43863
      H    H1619    35.40920   -2.36253    3.56295
      O    O1620    37.06432   -4.91960   -8.92392
      H    H1621    37.33921   -4.01171   -9.05200
      H    H1622    36.87540   -4.98335   -7.98773
      O    O1623    36.96086   -6.98270   -3.93098
      H    H1624    36.58522   -7.74991   -4.36285
      H    H1625    36.23117   -6.60043   -3.44349
      O    O1626    21.55043   -6.30399    2.68992
      H    H1627    21.91774   -6.39125    3.56953
      H    H1628    20.98151   -7.06733    2.59061
      O    O1629    36.35082   -7.83555    5.70297
      H    H1630    36.11943   -8.06427    4.80277
      H    H1631    36.61127   -6.91559    5.65746
      O    O1632    21.10203   -9.39308    6.59577
      H    H1633    20.20764   -9.42640    6.93514
      H    H1634    21.64179   -9.19440    7.36089
      O    O1635    19.72665   -9.47935   -5.90788
      H    H1636    18.82305   -9.21633   -6.08271
      H    H1637    20.21071   -9.20823   -6.68788
      O    O1638    36.23595   -8.75695   -0.63026
      H    H1639    36.75970   -9.25069   -1.26124
      H    H1640    36.82189   -8.62192    0.11450
      O    O1641    36.41492   -8.67297    2.89170
      H    H1642    35.46519   -8.70661    3.00620
      H    H1643    36.59622   -7.76295    2.65667
      O    O1644    35.05938    1.77749   -2.29712
      H    H1645    35.65529    1.45595   -2.97368
      H    H1646    35.31720    1.30467   -1.50580
      O    O1647    22.96564   -1.79072    7.85194
      H    H1648    22.92260   -2.16143    8.73338
      H    H1649    23.09674   -0.85296    7.99212
      O    O1650    26.66624   -0.23476    3.45291
      H    H1651    26.42538    0.03270    2.56596
      H    H1652    27.60651   -0.06419    3.50800
      O    O1653    37.92666    1.78468    4.25397
      H    H1654    37.43249    2.18157    3.53669
      H    H1655    37.31799    1.15960    4.64770
      O    O1656    22.80444    1.15551    4.97172
      H    H1657    22.21047    1.02398    5.71072
      H    H1658    22.79683    0.31932    4.50593
      O    O1659    35.61060    2.42702    1.53265
      H    H1660    35.15090    3.17860    1.15845
      H    H1661    34.98185    1.70767    1.47413
      O    O1662    22.43567   -1.47866    3.92252
      H    H1663    21.70907   -2.09813    3.85512
      H    H1664    22.49658   -1.08459    3.05233
      O    O1665    26.04018    0.73584    0.70746
      H    H1666    26.55668    0.12458    0.18229
      H    H1667    26.68991    1.23872    1.19856
      O    O1668    28.77973    1.62669    1.53436
      H    H1669    29.06751    1.37212    0.65766
      H    H1670    29.29205    1.07443    2.12492
      O    O1671    20.71867    1.83878   -2.86780
      H    H1672    20.55087    1.20585   -2.16961
      H    H1673    19.85212    2.04472   -3.21838
      O    O1674    22.32494    0.53211   -5.42279
      H    H1675    21.79970    0.91291   -6.12659
      H    H1676    22.24939    1.15718   -4.70182
      O    O1677    28.84696    2.54830    8.90118
      H    H1678    29.77369    2.31273    8.94478
      H    H1679    28.83200    3.37550    8.41978
      O    O1680    37.08147    2.09086   -4.10140
      H    H1681    37.25669    1.40463   -4.74530
      H    H1682    36.38362    2.61557   -4.49373
      O    O1683    24.92423    2.48034   -6.54786
      H    H1684    25.65611    2.19627   -7.09548
      H    H1685    25.18360    2.24167   -5.65793
      O    O1686    24.08571   -1.40318   -6.54323
      H    H1687    23.45660   -0.93467   -5.99465
      H    H1688    24.20049   -2.24826   -6.10861
      O    O1689    35.41472    1.77529    8.72528
      H    H1690    36.20725    1.28021    8.51788
      H    H1691    35.70803    2.45430    9.33284
      O    O1692    -6.00802   11.42173   -1.61876
      H    H1693    -6.08861   10.50719   -1.88959
      H    H1694    -6.42157   11.91844   -2.32479
      O    O1695    -7.87621   13.19964    0.26216
      H    H1696    -8.65200   12.71968    0.55202
      H    H1697    -7.22492   12.52020    0.08778
      O    O1698    -3.85547   17.60565   -0.95792
      H    H1699    -4.31732   16.83438   -0.62921
      H    H1700    -3.04291   17.63226   -0.45268
      O    O1701    -7.62914   19.89146   -1.33752
      H    H1702    -8.24799   20.34721   -1.90808
      H    H1703    -6.77396   20.04660   -1.73855
      O    O1704    -8.43531   15.87535    0.26918
      H    H1705    -8.50449   14.93435    0.10809
      H    H1706    -7.67333   15.96550    0.84144
      O    O1707    -7.40480    8.68239    0.49607
      H    H1708    -7.02831    7.80958    0.38344
      H    H1709    -7.50285    9.01826   -0.39488
      O    O1710    -3.62238    6.17744   -2.57109
      H    H1711    -2.80142    5.68709   -2.52854
      H    H1712    -3.58898    6.76720   -1.81791
      O    O1713     0.66757    8.19411    3.99327
      H    H1714    -0.03721    8.58228    3.47478
      H    H1715     0.93336    8.88914    4.59536
      O    O1716    -6.76280   14.77538   -3.94433
      H    H1717    -7.38108   15.24032   -4.50806
      H    H1718    -6.25048   15.46813   -3.52738
      O    O1719    -3.38624    8.11747    0.20166
      H    H1720    -4.09068    8.40596    0.78197
      H    H1721    -3.02502    8.92749   -0.15838
      O    O1722    -1.76996   17.73499    2.46441
      H    H1723    -2.45361   18.40490    2.45608
      H    H1724    -1.23053   17.93305    1.69890
      O    O1725    -0.31754    7.56295    0.59258
      H    H1726    -1.26505    7.59685    0.72413
      H    H1727     0.00745    8.37685    0.97752
      O    O1728    -4.23408   19.57940    1.17893
      H    H1729    -4.22137   19.17563    0.31115
      H    H1730    -4.78656   20.35413    1.07507
      O    O1731    -2.93954   16.30102   -3.73206
      H    H1732    -3.04991   15.35846   -3.60711
      H    H1733    -2.94272   16.66259   -2.84578
      O    O1734    -4.83554   14.48238    2.50719
      H    H1735    -4.41866   14.26840    1.67253
      H    H1736    -4.11156   14.73966    3.07805
      O    O1737    -7.39751   11.92755   -4.37581
      H    H1738    -8.32459   11.86129   -4.14696
      H    H1739    -7.24503   12.86557   -4.49028
      O    O1740    -7.41061    8.19925   -7.37909
      H    H1741    -8.35024    8.36065   -7.29384
      H    H1742    -7.09228    8.91782   -7.92549
      O    O1743    -0.88933   12.88111    2.59881
      H    H1744    -1.71747   12.95042    2.12383
      H    H1745    -0.29428   13.46654    2.13040
      O    O1746    -3.36779   13.48958   -3.87228
      H    H1747    -3.98654   13.15154   -4.51965
      H    H1748    -3.38534   12.84556   -3.16436
      O    O1749    -3.92513    9.66804    3.54430
      H    H1750    -4.33801   10.49341    3.79830
      H    H1751    -4.65753    9.08254    3.35194
      O    O1752    -3.23512   19.71397    4.23240
      H    H1753    -3.71206   20.52119    4.03966
      H    H1754    -3.91894   19.06180    4.38502
      O    O1755    -5.19132   12.72827   -6.86501
      H    H1756    -4.75199   11.89051   -7.01122
      H    H1757    -4.47847   13.36121   -6.77859
      O    O1758    -7.08178   17.66787   -2.89688
      H    H1759    -6.64219   18.41031   -3.31134
      H    H1760    -7.14309   17.91053   -1.97299
      O    O1761    -1.60960    3.98255   -8.55090
      H    H1762    -1.92234    4.07523   -7.65100
      H    H1763    -0.84835    4.56065   -8.60116
      O    O1764     0.34480   19.47517    9.30154
      H    H1765     0.82077   19.95345    9.98044
      H    H1766     0.96552   19.40691    8.57609
      O    O1767    -0.25187   16.66645    6.46154
      H    H1768    -0.12557   16.42764    5.54326
      H    H1769    -0.20974   15.83490    6.93375
      O    O1770    -6.39020   20.36925    5.03102
      H    H1771    -5.87573   20.28005    5.83326
      H    H1772    -7.23329   20.71522    5.32381
      O    O1773    -4.41476   20.65478   -5.54058
      H    H1774    -4.57465   20.36508   -4.64240
      H    H1775    -4.58009   19.87880   -6.07606
      O    O1776    -4.71215   18.16354   -6.98078
      H    H1777    -5.40563   18.16127   -7.64055
      H    H1778    -3.96986   17.73947   -7.41136
      O    O1779    -5.14715   19.78981   -2.90593
      H    H1780    -4.69146   19.00875   -2.59207
      H    H1781    -4.80790   20.50049   -2.36181
      O    O1782    -0.39947    8.71970    7.42651
      H    H1783    -1.01505    9.22766    6.89806
      H    H1784    -0.71983    7.81953    7.36911
      O    O1785    -8.33804    7.55889    4.89273
      H    H1786    -8.80010    7.76719    5.70472
      H    H1787    -8.74023    6.74482    4.58980
      O    O1788    -3.33759    8.77978    6.02240
      H    H1789    -4.18823    8.48036    6.34330
      H    H1790    -3.49741    9.02398    5.11078
      O    O1791    -6.24262   10.27996    8.12228
      H    H1792    -5.91728    9.44633    7.78250
      H    H1793    -5.45459   10.80281    8.27011
      O    O1794    -5.60382    9.82173   -4.38361
      H    H1795    -6.20293   10.54531   -4.56725
      H    H1796    -5.05586    9.75941   -5.16597
      O    O1797    -6.99734    8.45808   -2.35328
      H    H1798    -6.60438    8.77530   -3.16641
      H    H1799    -6.63565    7.57927   -2.23883
      O    O1800    -8.68812    7.20881    8.90640
      H    H1801    -9.37829    7.01603    9.54101
      H    H1802    -7.94489    7.49228    9.43883
      O    O1803    -6.41182   11.04866    1.74179
      H    H1804    -7.14371   11.55734    2.09080
      H    H1805    -6.80939   10.23165    1.44067
      O    O1806    -5.94923    6.50202    1.15409
      H    H1807    -5.93196    6.95289    1.99827
      H    H1808    -6.19767    5.60259    1.36743
      O    O1809    -2.52216    3.91524    6.99273
      H    H1810    -2.19758    3.18421    7.51852
      H    H1811    -2.48651    3.59661    6.09083
      O    O1812    -2.59637   14.02775    0.60133
      H    H1813    -1.87646   14.52328    0.21094
      H    H1814    -2.79819   13.34954   -0.04328
      O    O1815    -7.13538    5.42155   -5.25573
      H    H1816    -7.94892    4.92287   -5.33120
      H    H1817    -7.32918    6.26137   -5.67210
      O    O1818    -7.21449   14.09866    6.48823
      H    H1819    -7.28076   13.17823    6.23399
      H    H1820    -7.84398   14.19620    7.20269
      O    O1821    -4.42054    9.79351   -6.95952
      H    H1822    -3.53258   10.10524   -7.13438
      H    H1823    -4.45003    8.92074   -7.35146
      O    O1824    -8.42448   15.96588   -6.28070
      H    H1825    -8.08291   16.71011   -6.77637
      H    H1826    -9.25321   16.27900   -5.91822
      O    O1827    -7.28282   16.92072    6.23861
      H    H1828    -7.26837   15.98881    6.02050
      H    H1829    -7.99031   17.00669    6.87759
      O    O1830    -2.14911   11.10470   -7.49153
      H    H1831    -2.23274   11.53612   -8.34189
      H    H1832    -1.42969   11.56453   -7.05885
      O    O1833    -1.07170   13.56145    5.58547
      H    H1834    -1.79688   14.15433    5.38841
      H    H1835    -0.54415   13.55380    4.78680
      O    O1836    -1.12039   17.95892   -4.76332
      H    H1837    -1.76277   17.30449   -4.48894
      H    H1838    -1.50732   18.36443   -5.53925
      O    O1839    -5.54174   15.28747   -0.91615
      H    H1840    -5.18936   14.69028   -1.57601
      H    H1841    -6.42551   14.96189   -0.74532
      O    O1842    -7.84943   18.56247    3.33266
      H    H1843    -7.20521   18.76841    4.01000
      H    H1844    -7.48649   17.80131    2.87974
      O    O1845    -6.57622   16.56571    2.05040
      H    H1846    -5.93400   15.86502    2.16362
      H    H1847    -6.05129   17.34555    1.87009
      O    O1848    -2.73065   16.85057   -8.22568
      H    H1849    -2.95689   16.13361   -7.63322
      H    H1850    -3.12103   16.60181   -9.06351
      O    O1851    -4.80246   17.36520    5.25401
      H    H1852    -4.46684   17.95187    5.93180
      H    H1853    -5.72243   17.23447    5.48379
      O    O1854    -3.14902   14.76776   -6.56427
      H    H1855    -3.43685   15.22903   -5.77648
      H    H1856    -2.35381   14.30754   -6.29584
      O    O1857    -5.75824    7.64695    3.78650
      H    H1858    -5.39016    6.82647    4.11445
      H    H1859    -6.61842    7.70714    4.20206
      O    O1860    -2.39204    6.60264   -5.40475
      H    H1861    -3.02072    6.70721   -6.11892
      H    H1862    -2.88685    6.82232   -4.61536
      O    O1863    -7.94622   18.32320   -7.97135
      H    H1864    -7.84503   18.11960   -8.90115
      H    H1865    -8.84605   18.06903   -7.76657
      O    O1866    -8.79804   10.30091    4.01029
      H    H1867    -8.29952   10.77549    4.67548
      H    H1868    -8.65575    9.37726    4.21730
      O    O1869    -6.39209    5.60630   -2.54938
      H    H1870    -6.51531    5.62492   -3.49843
      H    H1871    -5.44364    5.65420   -2.42954
      O    O1872    -1.59136    6.51770    4.85313
      H    H1873    -2.09400    7.25824    5.19251
      H    H1874    -0.77569    6.90610    4.53681
      O    O1875    -3.29916   11.76102   -1.70073
      H    H1876    -4.24014   11.77604   -1.52596
      H    H1877    -2.98475   10.97462   -1.25470
      O    O1878    -1.29660   18.93191   -0.02531
      H    H1879    -1.17186   19.75502    0.44708
      H    H1880    -0.43004   18.72098   -0.37289
      O    O1881    -5.98255   16.31762    8.78251
      H    H1882    -6.58874   16.34078    8.04208
      H    H1883    -6.28714   15.58592    9.31923
      O    O1884    -4.55252   20.04565    7.39345
      H    H1885    -3.60034   19.96145    7.34347
      H    H1886    -4.69969   20.70982    8.06683
      O    O1887    -1.66160   19.42507   -7.10736
      H    H1888    -1.94745   19.01158   -7.92194
      H    H1889    -1.85964   20.35384   -7.22731
      O    O1890    -6.95660   14.48040   -8.06260
      H    H1891    -7.50559   14.92733   -7.41833
      H    H1892    -6.33467   13.97533   -7.53883
      O    O1893    -2.90311   15.83461    7.86962
      H    H1894    -2.16216   16.17219    7.36637
      H    H1895    -3.66584   16.00382    7.31660
      O    O1896    -8.77632   12.46325   -8.91836
      H    H1897    -8.25576   11.74816   -9.28425
      H    H1898    -8.12948   13.10184   -8.61831
      O    O1899    -4.22854   13.88609    6.40515
      H    H1900    -3.81444   14.04060    7.25419
      H    H1901    -5.16344   14.01162    6.56772
      O    O1902    -3.75632   11.22571    8.40906
      H    H1903    -3.17425   10.47094    8.32111
      H    H1904    -3.58015   11.75645    7.63221
      O    O1905    -7.13063   11.56976    5.75852
      H    H1906    -7.01101   10.97387    6.49801
      H    H1907    -6.27123   11.60673    5.33865
      O    O1908    -4.79184   12.12348    4.33477
      H    H1909    -5.31832   12.64774    3.73129
      H    H1910    -4.44870   12.75622    4.96575
      O    O1911    -5.54441    7.72848    7.24941
      H    H1912    -6.23286    7.06663    7.18441
      H    H1913    -4.82381    7.28230    7.69425
      O    O1914    -4.91437    4.32364   -6.69157
      H    H1915    -4.63414    3.48043   -6.33563
      H    H1916    -5.68779    4.55595   -6.17769
      O    O1917    -8.76005   21.37856    5.74918
      H    H1918    -8.83418   22.28208    6.05641
      H    H1919    -9.66217   21.05975    5.72138
      O    O1920    -8.21152   20.54442   -6.62819
      H    H1921    -7.31644   20.88291   -6.60631
      H    H1922    -8.17976   19.82236   -7.25576
      O    O1923    -1.23209   19.07478    6.07843
      H    H1924    -1.83189   19.13404    5.33482
      H    H1925    -1.10270   18.13528    6.20812
      O    O1926     0.00806   16.81656   -8.58460
      H    H1927    -0.82265   16.88423   -8.11387
      H    H1928     0.18524   17.70698   -8.88791
      O    O1929    -0.53630   13.56131   -6.08118
      H    H1930     0.22560   14.13098   -5.97521
      H    H1931    -0.52086   12.99403   -5.31035
      O    O1932     0.46970   14.41632   -1.23698
      H    H1933     0.84058   13.63305   -1.64339
      H    H1934     1.10989   15.10523   -1.41525
      O    O1935    -2.54692   15.79998    4.17605
      H    H1936    -3.36094   16.22970    4.43863
      H    H1937    -2.13950   16.41182    3.56295
      O    O1938    -0.48438   13.85475   -8.92392
      H    H1939    -0.20949   14.76264   -9.05200
      H    H1940    -0.67330   13.79100   -7.98773
      O    O1941    -4.08682    6.87923   -7.62856
      H    H1942    -3.66833    6.69233   -8.46890
      H    H1943    -4.39321    6.02714   -7.31827
      O    O1944    -0.58784   11.79165   -3.93098
      H    H1945    -0.96348   11.02444   -4.36285
      H    H1946    -1.31753   12.17392   -3.44349
      O    O1947    -1.19788   10.93880    5.70297
      H    H1948    -1.42927   10.71008    4.80277
      H    H1949    -0.93743   11.85876    5.65746
      O    O1950    -2.75908    6.16444    8.48094
      H    H1951    -1.88206    6.17278    8.86434
      H    H1952    -2.74699    5.42753    7.87018
      O    O1953    -1.31275   10.01740   -0.63026
      H    H1954    -0.78900    9.52366   -1.26124
      H    H1955    -0.72681   10.15243    0.11450
      O    O1956    -1.13378   10.10138    2.89170
      H    H1957    -2.08351   10.06774    3.00620
      H    H1958    -0.95248   11.01140    2.65667
      O    O1959    -1.82275    9.27473   -4.69102
      H    H1960    -1.32684    9.04182   -3.90613
      H    H1961    -2.02114    8.43592   -5.10725
      O    O1962    -0.39404    7.91083   -2.15725
      H    H1963    -0.50411    7.75643   -1.21902
      H    H1964     0.36672    7.38292   -2.39971
      O    O1965    -2.04746    3.85024    4.30105
      H    H1966    -1.41024    4.46365    4.66697
      H    H1967    -1.89997    3.88631    3.35597
      O    O1968     0.49499    5.74162   -8.91663
      H    H1969     1.41992    5.60974   -9.12481
      H    H1970     0.47257    5.82090   -7.96299
      O    O1971     0.56884    6.51269   -6.29096
      H    H1972    -0.22601    6.44720   -5.76167
      H    H1973     0.77317    7.44775   -6.30243
      O    O1974    -2.48932   20.55184   -2.29712
      H    H1975    -1.89341   20.23030   -2.97368
      H    H1976    -2.23150   20.07902   -1.50580
      O    O1977    -8.67702    5.00286    7.20856
      H    H1978    -8.73813    5.59504    7.95810
      H    H1979    -7.73698    4.89546    7.06359
      O    O1980    -6.03956    4.65987    6.84779
      H    H1981    -5.42552    4.97779    6.18590
      H    H1982    -5.49460    4.17472    7.46738
      O    O1983     0.37796   20.55903    4.25397
      H    H1984    -0.11621   20.95592    3.53669
      H    H1985    -0.23071   19.93395    4.64770
      O    O1986    -5.29876    3.22308    3.17472
      H    H1987    -6.17277    3.55659    2.97201
      H    H1988    -5.40768    2.75040    3.99991
      O    O1989    -4.39156    5.43017    4.55889
      H    H1990    -4.72022    4.61534    4.17906
      H    H1991    -3.44333    5.38715    4.43546
      O    O1992    -1.93810   21.20137    1.53265
      H    H1993    -2.39780   21.95295    1.15845
      H    H1994    -2.56685   20.48202    1.47413
      O    O1995    -8.76897   20.40104    1.53436
      H    H1996    -8.48119   20.14647    0.65766
      H    H1997    -8.25665   19.84878    2.12492
      O    O1998    -7.55127    4.14006    2.11401
      H    H1999    -8.33409    4.61461    2.39369
      H    H2000    -7.84498    3.23555    2.00533
      O    O2001    -2.99917    4.84237    0.15892
      H    H2002    -2.55836    4.78688   -0.68892
      H    H2003    -3.26841    5.75817    0.22994
      O    O2004    -1.13531    4.47390   -1.83020
      H    H2005    -1.19647    3.53002   -1.97710
      H    H2006    -0.35611    4.58191   -1.28485
      O    O2007    -5.16335    3.22298   -1.13608
      H    H2008    -4.56042    3.79500   -0.66123
      H    H2009    -5.90405    3.78693   -1.35869
      O    O2010    -2.01989    3.62514   -5.86205
      H    H2011    -1.82483    4.52348   -5.59531
      H    H2012    -2.80691    3.39385   -5.36876
      O    O2013    -8.70174   21.32265    8.90118
      H    H2014    -7.77501   21.08708    8.94478
      H    H2015    -8.71670   22.14985    8.41978
      O    O2016    -0.46723   20.86521   -4.10140
      H    H2017    -0.29201   20.17898   -4.74530
      H    H2018    -1.16508   21.38992   -4.49373
      O    O2019    -4.91383    3.40249    9.24341
      H    H2020    -5.02729    3.72195   10.13857
      H    H2021    -4.09686    3.80374    8.94714
      O    O2022    -2.13398   20.54964    8.72528
      H    H2023    -1.34145   20.05456    8.51788
      H    H2024    -1.84067   21.22865    9.33284
      O    O2025    12.76633   11.42173   -1.61876
      H    H2026    12.68574   10.50719   -1.88959
      H    H2027    12.35278   11.91844   -2.32479
      O    O2028     4.91472   13.51162    1.13974
      H    H2029     4.08321   13.25649    1.53939
      H    H2030     5.52282   13.58269    1.87553
      O    O2031    14.91888   17.60565   -0.95792
      H    H2032    14.45703   16.83438   -0.62921
      H    H2033    15.73144   17.63226   -0.45268
      O    O2034     4.89485   17.54563    1.33554
      H    H2035     5.19765   16.65540    1.15656
      H    H2036     5.63921   18.10265    1.10777
      O    O2037     3.32392    8.47181   -5.07602
      H    H2038     2.43559    8.81340   -5.17803
      H    H2039     3.60803    8.27184   -5.96794
      O    O2040     1.28722   11.07237    0.80795
      H    H2041     1.85883   10.30459    0.80831
      H    H2042     1.28737   11.37125   -0.10139
      O    O2043    11.14521   19.89146   -1.33752
      H    H2044    10.52636   20.34721   -1.90808
      H    H2045    12.00039   20.04660   -1.73855
      O    O2046     2.52970    6.48081    2.59484
      H    H2047     2.34999    5.58338    2.87512
      H    H2048     2.12771    7.02799    3.26954
      O    O2049    11.36955    8.68239    0.49607
      H    H2050    11.74604    7.80958    0.38344
      H    H2051    11.27150    9.01826   -0.39488
      O    O2052     5.50005    7.05496   -4.04218
      H    H2053     5.60673    7.95533   -3.73531
      H    H2054     4.58929    7.00675   -4.33272
      O    O2055    15.15197    6.17744   -2.57109
      H    H2056    15.97293    5.68709   -2.52854
      H    H2057    15.18537    6.76720   -1.81791
      O    O2058     3.14837    8.97686    1.20308
      H    H2059     3.82938    9.24069    1.82182
      H    H2060     2.83318    8.13694    1.53688
      O    O2061     7.34083   10.02359    0.29034
      H    H2062     7.84865   10.52169    0.93084
      H    H2063     7.87215    9.24711    0.11427
      O    O2064     5.62444    4.66345    4.55668
      H    H2065     5.62628    5.18069    3.75127
      H    H2066     4.79487    4.18647    4.53367
      O    O2067    12.01155   14.77538   -3.94433
      H    H2068    11.39327   15.24032   -4.50806
      H    H2069    12.52387   15.46813   -3.52738
      O    O2070     6.87472   14.30297    2.73403
      H    H2071     6.54166   14.92986    3.37613
      H    H2072     7.05139   14.82915    1.95419
      O    O2073    15.38811    8.11747    0.20166
      H    H2074    14.68367    8.40596    0.78197
      H    H2075    15.74933    8.92749   -0.15838
      O    O2076     5.30597    6.37444    2.56372
      H    H2077     5.64765    7.21865    2.26911
      H    H2078     4.36755    6.52282    2.68026
      O    O2079     6.08663   16.27105    4.54895
      H    H2080     6.70403   16.94615    4.26739
      H    H2081     5.22594   16.67984    4.45770
      O    O2082     1.37987   15.46103   -6.57037
      H    H2083     1.00266   15.94974   -7.30188
      H    H2084     1.63717   16.13356   -5.93972
      O    O2085    18.45681    7.56295    0.59258
      H    H2086    17.50930    7.59685    0.72413
      H    H2087    18.78180    8.37685    0.97752
      O    O2088     8.98876    3.86267   -1.11182
      H    H2089     9.29626    3.30736   -1.82827
      H    H2090     8.05883    3.99712   -1.29452
      O    O2091    15.83481   16.30102   -3.73206
      H    H2092    15.72444   15.35846   -3.60711
      H    H2093    15.83163   16.66259   -2.84578
      O    O2094    11.37684   11.92755   -4.37581
      H    H2095    10.44976   11.86129   -4.14696
      H    H2096    11.52932   12.86557   -4.49028
      O    O2097    11.36374    8.19925   -7.37909
      H    H2098    10.42411    8.36065   -7.29384
      H    H2099    11.68207    8.91782   -7.92549
      O    O2100    15.40656   13.48958   -3.87228
      H    H2101    14.78781   13.15154   -4.51965
      H    H2102    15.38901   12.84556   -3.16436
      O    O2103     6.98250   12.45403   -1.59383
      H    H2104     6.57820   11.74175   -2.08924
      H    H2105     7.06881   12.10935   -0.70503
      O    O2106     7.45067   16.14078    0.57009
      H    H2107     7.15350   15.53533   -0.10913
      H    H2108     8.40065   16.17852    0.45902
      O    O2109     5.69536    9.22835    2.18607
      H    H2110     6.24682    9.33788    1.41140
      H    H2111     6.20971    9.60211    2.90159
      O    O2112     6.54251   15.87895    7.22087
      H    H2113     5.64537   16.10295    7.46821
      H    H2114     6.56780   16.00245    6.27201
      O    O2115    13.58303   12.72827   -6.86501
      H    H2116    14.02236   11.89051   -7.01122
      H    H2117    14.29588   13.36121   -6.77859
      O    O2118     5.36963   12.75029    5.79660
      H    H2119     5.23041   13.62257    6.16534
      H    H2120     4.48777   12.40757    5.65140
      O    O2121    11.69257   17.66787   -2.89688
      H    H2122    12.13216   18.41031   -3.31134
      H    H2123    11.63126   17.91053   -1.97299
      O    O2124     7.16767   18.69246    8.00512
      H    H2125     7.13921   19.09675    7.13796
      H    H2126     7.00417   17.76349    7.84228
      O    O2127    17.16475    3.98255   -8.55090
      H    H2128    16.85201    4.07523   -7.65100
      H    H2129    17.92600    4.56065   -8.60116
      O    O2130     3.68296   11.34853   -4.09317
      H    H2131     3.56272   12.07474   -4.70504
      H    H2132     3.37305   10.57882   -4.57038
      O    O2133    19.11915   19.47517    9.30154
      H    H2134    19.59512   19.95345    9.98044
      H    H2135    19.73987   19.40691    8.57609
      O    O2136     1.32150   14.52004    1.71370
      H    H2137     1.39954   14.65492    0.76927
      H    H2138     1.93567   13.81163    1.90651
      O    O2139     2.56626   16.22006   -1.87569
      H    H2140     2.15907   16.36152   -2.73033
      H    H2141     3.45756   15.93608   -2.07857
      O    O2142    14.35959   20.65478   -5.54058
      H    H2143    14.19970   20.36508   -4.64240
      H    H2144    14.19426   19.87880   -6.07606
      O    O2145     6.83843   20.43464   -3.76342
      H    H2146     6.66268   19.51819   -3.97664
      H    H2147     5.98400   20.79337   -3.52364
      O    O2148    14.06220   18.16354   -6.98078
      H    H2149    13.36872   18.16127   -7.64055
      H    H2150    14.80449   17.73947   -7.41136
      O    O2151    13.62720   19.78981   -2.90593
      H    H2152    14.08289   19.00875   -2.59207
      H    H2153    13.96645   20.50049   -2.36181
      O    O2154     1.37745   15.56146    4.25314
      H    H2155     1.54056   15.09199    3.43508
      H    H2156     1.84270   15.05381    4.91803
      O    O2157     6.14933    4.69203   -0.71080
      H    H2158     5.70614    5.47299   -1.04235
      H    H2159     6.70783    5.01502   -0.00371
      O    O2160    10.43631    7.55889    4.89273
      H    H2161     9.97425    7.76719    5.70472
      H    H2162    10.03412    6.74482    4.58980
      O    O2163     9.26521    4.31310   -5.83022
      H    H2164     8.64063    4.30909   -5.10489
      H    H2165     9.17822    3.44620   -6.22662
      O    O2166     8.18692    5.23677    1.14816
      H    H2167     8.48415    6.14305    1.06736
      H    H2168     8.73547    4.74864    0.53412
      O    O2169     5.94075    9.81539   -2.98268
      H    H2170     5.71484    9.59911   -2.07801
      H    H2171     5.16000   10.24824   -3.32808
      O    O2172    13.17053    9.82173   -4.38361
      H    H2173    12.57142   10.54531   -4.56725
      H    H2174    13.71849    9.75941   -5.16597
      O    O2175     8.38067   10.71395    7.68335
      H    H2176     8.28503    9.77342    7.53339
      H    H2177     9.22387   10.93546    7.28816
      O    O2178    11.77701    8.45808   -2.35328
      H    H2179    12.16997    8.77530   -3.16641
      H    H2180    12.13870    7.57927   -2.23883
      O    O2181     3.51173    7.12532    5.83673
      H    H2182     3.11806    7.97284    6.04401
      H    H2183     2.82357    6.48795    6.02759
      O    O2184    10.08623    7.20881    8.90640
      H    H2185     9.39606    7.01603    9.54101
      H    H2186    10.82946    7.49228    9.43883
      O    O2187     0.81343    5.04816   -0.13026
      H    H2188     0.52474    5.61845    0.58223
      H    H2189     1.55801    4.56861    0.23286
      O    O2190     8.80027    7.72408    0.14704
      H    H2191     8.80387    7.28307   -0.70250
      H    H2192     9.69538    8.04581    0.25423
      O    O2193     4.65050    7.60673   -0.89354
      H    H2194     4.31051    8.08425   -0.13683
      H    H2195     3.88824    7.15324   -1.25343
      O    O2196     8.86228    8.72528   -6.86228
      H    H2197     8.98356    8.68393   -5.91370
      H    H2198     8.47713    9.58770   -7.01761
      O    O2199    12.82512    6.50202    1.15409
      H    H2200    12.84239    6.95289    1.99827
      H    H2201    12.57668    5.60259    1.36743
      O    O2202     7.87443   11.03540   -7.46395
      H    H2203     7.30612   10.58722   -8.09036
      H    H2204     8.58333   11.39468   -7.99744
      O    O2205    16.25219    3.91524    6.99273
      H    H2206    16.57677    3.18421    7.51852
      H    H2207    16.28784    3.59661    6.09083
      O    O2208     2.95135   14.93660    6.41272
      H    H2209     2.56683   14.29597    7.01102
      H    H2210     3.26257   15.64021    6.98220
      O    O2211     9.10106   11.78425    1.89358
      H    H2212     9.46808   11.31011    2.63972
      H    H2213     8.91157   12.65841    2.23442
      O    O2214     1.96511    6.52862   -1.97707
      H    H2215     1.67980    6.16419   -1.13921
      H    H2216     1.90300    5.79667   -2.59075
      O    O2217     6.89100   10.82512    4.21201
      H    H2218     6.58671   11.70432    4.43704
      H    H2219     7.84565   10.88510    4.24775
      O    O2220     5.41918   15.03122   -5.19131
      H    H2221     4.64541   14.49098   -5.35144
      H    H2222     6.14864   14.51188   -5.52953
      O    O2223    11.63897    5.42155   -5.25573
      H    H2224    10.82543    4.92287   -5.33120
      H    H2225    11.44517    6.26137   -5.67210
      O    O2226    14.35381    9.79351   -6.95952
      H    H2227    15.24177   10.10524   -7.13438
      H    H2228    14.32432    8.92074   -7.35146
      O    O2229     5.46292   14.69926   -1.55343
      H    H2230     5.98079   13.89608   -1.60774
      H    H2231     5.01132   14.63717   -0.71175
      O    O2232    10.34987   15.96588   -6.28070
      H    H2233    10.69144   16.71011   -6.77637
      H    H2234     9.52114   16.27900   -5.91822
      O    O2235     2.94737   11.66539    5.35914
      H    H2236     2.58887   12.33078    5.94648
      H    H2237     2.65283   10.83375    5.73040
      O    O2238     6.14869   12.12382    8.24310
      H    H2239     5.84870   12.26953    7.34588
      H    H2240     6.91981   11.56435    8.15044
      O    O2241    16.62524   11.10470   -7.49153
      H    H2242    16.54161   11.53612   -8.34189
      H    H2243    17.34466   11.56453   -7.05885
      O    O2244    17.65396   17.95892   -4.76332
      H    H2245    17.01158   17.30449   -4.48894
      H    H2246    17.26703   18.36443   -5.53925
      O    O2247    13.23261   15.28747   -0.91615
      H    H2248    13.58499   14.69028   -1.57601
      H    H2249    12.34884   14.96189   -0.74532
      O    O2250     9.31894   16.04724   -3.50911
      H    H2251    10.00605   16.59416   -3.12835
      H    H2252     8.53218   16.59131   -3.47415
      O    O2253     1.45818   11.66452   -8.01740
      H    H2254     2.32766   11.94700   -7.73381
      H    H2255     0.96721   12.47811   -8.13252
      O    O2256     8.62166   13.05184   -3.89657
      H    H2257     9.07794   13.86236   -3.67055
      H    H2258     8.27048   12.73415   -3.06472
      O    O2259     4.52284    3.39560   -3.42432
      H    H2260     4.39430    3.38739   -2.47583
      H    H2261     3.69904    3.73391   -3.77522
      O    O2262    16.04370   16.85057   -8.22568
      H    H2263    15.81746   16.13361   -7.63322
      H    H2264    15.65332   16.60181   -9.06351
      O    O2265     1.82530   20.87726   -7.45124
      H    H2266     2.18507   21.47619   -8.10551
      H    H2267     1.68454   21.42325   -6.67773
      O    O2268     1.52223    5.15472    6.03635
      H    H2269     0.80808    5.35441    6.64161
      H    H2270     1.94173    4.37867    6.40783
      O    O2271    15.62533   14.76776   -6.56427
      H    H2272    15.33750   15.22903   -5.77648
      H    H2273    16.42054   14.30754   -6.29584
      O    O2274     1.80949   19.14274    7.02300
      H    H2275     1.91860   18.20222    6.88254
      H    H2276     1.15755   19.40822    6.37438
      O    O2277     9.80075   17.41433    8.42282
      H    H2278     9.48044   16.69526    8.96739
      H    H2279     9.12658   18.08984    8.49642
      O    O2280     7.84217   18.26038   -6.63387
      H    H2281     7.83318   18.99335   -7.24942
      H    H2282     6.92200   18.01353   -6.54117
      O    O2283     3.44283   13.48187   -5.88919
      H    H2284     2.83562   14.22176   -5.87966
      H    H2285     3.91776   13.57180   -6.71537
      O    O2286    16.38231    6.60264   -5.40475
      H    H2287    15.75363    6.70721   -6.11892
      H    H2288    15.88750    6.82232   -4.61536
      O    O2289    10.82813   18.32320   -7.97135
      H    H2290    10.92932   18.11960   -8.90115
      H    H2291     9.92830   18.06903   -7.76657
      O    O2292     8.35071    8.88124   -3.98896
      H    H2293     7.64233    9.34987   -3.54760
      H    H2294     8.63516    8.22344   -3.35444
      O    O2295    12.38226    5.60630   -2.54938
      H    H2296    12.25904    5.62492   -3.49843
      H    H2297    13.33071    5.65420   -2.42954
      O    O2298     9.46994   20.84183   -3.27658
      H    H2299     9.72409   20.80397   -4.19865
      H    H2300     8.52118   20.71517   -3.28376
      O    O2301     6.55422    7.18974   -6.61389
      H    H2302     7.40327    7.62676   -6.67987
      H    H2303     6.18734    7.50177   -5.78668
      O    O2304    17.18299    6.51770    4.85313
      H    H2305    16.68035    7.25824    5.19251
      H    H2306    17.99866    6.90610    4.53681
      O    O2307    15.47519   11.76102   -1.70073
      H    H2308    14.53421   11.77604   -1.52596
      H    H2309    15.78960   10.97462   -1.25470
      O    O2310     5.45336   13.44298   -8.14034
      H    H2311     6.21969   13.33112   -7.57779
      H    H2312     5.53083   12.74678   -8.79266
      O    O2313     4.14803   10.87549   -7.45705
      H    H2314     4.22839    9.92824   -7.34531
      H    H2315     5.04001   11.20618   -7.35098
      O    O2316    17.47775   18.93191   -0.02531
      H    H2317    17.60249   19.75502    0.44708
      H    H2318    18.34431   18.72098   -0.37289
      O    O2319     4.94951   21.02503   -0.35359
      H    H2320     5.68575   20.47657   -0.08274
      H    H2321     5.33360   21.89063   -0.49299
      O    O2322     1.83405   17.09238   -4.47944
      H    H2323     0.90803   17.33450   -4.48890
      H    H2324     2.29970   17.91981   -4.60097
      O    O2325     3.95533   20.20963    8.83497
      H    H2326     4.75661   20.53084    9.24851
      H    H2327     3.44052   19.84919    9.55696
      O    O2328     8.05974   20.19806   -8.53104
      H    H2329     8.85260   20.48694   -8.98286
      H    H2330     7.54017   19.76727   -9.20979
      O    O2331    14.22183   20.04565    7.39345
      H    H2332    15.17401   19.96145    7.34347
      H    H2333    14.07466   20.70982    8.06683
      O    O2334    17.11275   19.42507   -7.10736
      H    H2335    16.82690   19.01158   -7.92194
      H    H2336    16.91471   20.35384   -7.22731
      O    O2337     1.67511   12.69698    7.77857
      H    H2338     2.17902   12.11771    8.35019
      H    H2339     0.93586   12.98100    8.31621
      O    O2340     8.57748   15.41840   -8.66680
      H    H2341     8.47254   14.80363   -7.94066
      H    H2342     8.40990   14.89499   -9.45050
      O    O2343     8.72891   14.10408    7.31212
      H    H2344     7.96348   14.67258    7.22759
      H    H2345     8.91050   13.81170    6.41895
      O    O2346    11.81775   14.48040   -8.06260
      H    H2347    11.26876   14.92733   -7.41833
      H    H2348    12.43968   13.97533   -7.53883
      O    O2349     3.70742   10.83994    8.67358
      H    H2350     3.74796   10.54133    9.58210
      H    H2351     4.56197   11.24070    8.51433
      O    O2352     7.48526   13.43949   -6.16607
      H    H2353     7.90690   13.27348   -5.32293
      H    H2354     7.61035   12.62952   -6.66056
      O    O2355     5.64800    9.41915    6.64103
      H    H2356     5.11765    8.92824    6.01336
      H    H2357     6.31681    9.84757    6.10682
      O    O2358     9.99803   12.46325   -8.91836
      H    H2359    10.51859   11.74816   -9.28425
      H    H2360    10.64487   13.10184   -8.61831
      O    O2361     6.13523    6.38539    6.72076
      H    H2362     6.04092    5.76746    5.99584
      H    H2363     5.55497    7.11201    6.49375
      O    O2364     8.90138    4.94271    3.75349
      H    H2365     8.45311    4.96514    2.90805
      H    H2366     8.26790    4.54461    4.35052
      O    O2367     7.15807   20.14344    5.49051
      H    H2368     6.62018   20.86805    5.17138
      H    H2369     7.41147   19.66648    4.70025
      O    O2370     8.41060    8.11190    7.01610
      H    H2371     9.00057    7.80348    7.70389
      H    H2372     7.59262    7.63987    7.17209
      O    O2373    13.22994    7.72848    7.24941
      H    H2374    12.54149    7.06663    7.18441
      H    H2375    13.95054    7.28230    7.69425
      O    O2376    13.85998    4.32364   -6.69157
      H    H2377    14.14021    3.48043   -6.33563
      H    H2378    13.08656    4.55595   -6.17769
      O    O2379    10.01430   21.37856    5.74918
      H    H2380     9.94017   22.28208    6.05641
      H    H2381     9.11218   21.05975    5.72138
      O    O2382     8.39792    5.55634   -8.24685
      H    H2383     8.05012    4.87874   -8.82660
      H    H2384     8.59920    5.09529   -7.43251
      O    O2385    10.56283   20.54442   -6.62819
      H    H2386    11.45791   20.88291   -6.60631
      H    H2387    10.59459   19.82236   -7.25576
      O    O2388     4.20244   15.91712   -8.39949
      H    H2389     4.63993   16.46009   -7.74373
      H    H2390     4.68722   15.09182   -8.38985
      O    O2391     1.41702   18.70602   -0.94746
      H    H2392     1.74733   17.83813   -1.17960
      H    H2393     1.84612   18.91188   -0.11697
      O    O2394     6.01322   17.03692   -3.28726
      H    H2395     5.71277   16.91342   -2.38687
      H    H2396     5.90697   16.17778   -3.69569
      O    O2397     1.90605   19.57308    1.79070
      H    H2398     1.46914   19.75316    2.62312
      H    H2399     2.47381   20.33054    1.64887
      O    O2400    17.54226   19.07478    6.07843
      H    H2401    16.94246   19.13404    5.33482
      H    H2402    17.67165   18.13528    6.20812
      O    O2403    18.78241   16.81656   -8.58460
      H    H2404    17.95170   16.88423   -8.11387
      H    H2405    18.95959   17.70698   -8.88791
      O    O2406    18.23805   13.56131   -6.08118
      H    H2407    18.99995   14.13098   -5.97521
      H    H2408    18.25349   12.99403   -5.31035
      O    O2409     1.73849   12.08511   -1.85041
      H    H2410     1.08337   11.81627   -2.49444
      H    H2411     2.57628   11.97555   -2.30021
      O    O2412    19.24405   14.41632   -1.23698
      H    H2413    19.61493   13.63305   -1.64339
      H    H2414    19.88424   15.10523   -1.41525
      O    O2415    18.28997   13.85475   -8.92392
      H    H2416    18.56486   14.76264   -9.05200
      H    H2417    18.10105   13.79100   -7.98773
      O    O2418    14.68753    6.87923   -7.62856
      H    H2419    15.10602    6.69233   -8.46890
      H    H2420    14.38114    6.02714   -7.31827
      O    O2421    18.18651   11.79165   -3.93098
      H    H2422    17.81087   11.02444   -4.36285
      H    H2423    17.45682   12.17392   -3.44349
      O    O2424     2.77608   12.47036    2.68992
      H    H2425     3.14339   12.38310    3.56953
      H    H2426     2.20716   11.70702    2.59061
      O    O2427     2.32768    9.38127    6.59577
      H    H2428     1.43329    9.34795    6.93514
      H    H2429     2.86744    9.57995    7.36089
      O    O2430    16.01527    6.16444    8.48094
      H    H2431    16.89229    6.17278    8.86434
      H    H2432    16.02736    5.42753    7.87018
      O    O2433     0.95230    9.29500   -5.90788
      H    H2434     0.04870    9.55802   -6.08271
      H    H2435     1.43636    9.56612   -6.68788
      O    O2436    17.46160   10.01740   -0.63026
      H    H2437    17.98535    9.52366   -1.26124
      H    H2438    18.04754   10.15243    0.11450
      O    O2439     3.49502    8.35155   -7.99844
      H    H2440     4.20419    7.92987   -8.48371
      H    H2441     2.77901    8.41908   -8.63010
      O    O2442    16.95160    9.27473   -4.69102
      H    H2443    17.44751    9.04182   -3.90613
      H    H2444    16.75321    8.43592   -5.10725
      O    O2445     2.83165    3.65610    0.94409
      H    H2446     3.47927    3.10584    0.50360
      H    H2447     3.25184    3.91042    1.76567
      O    O2448    18.38031    7.91083   -2.15725
      H    H2449    18.27024    7.75643   -1.21902
      H    H2450    19.14107    7.38292   -2.39971
      O    O2451    16.72689    3.85024    4.30105
      H    H2452    17.36411    4.46365    4.66697
      H    H2453    16.87438    3.88631    3.35597
      O    O2454    19.26934    5.74162   -8.91663
      H    H2455    20.19427    5.60974   -9.12481
      H    H2456    19.24692    5.82090   -7.96299
      O    O2457    19.34319    6.51269   -6.29096
      H    H2458    18.54834    6.44720   -5.76167
      H    H2459    19.54752    7.44775   -6.30243
      O    O2460    16.28503   20.55184   -2.29712
      H    H2461    16.88094   20.23030   -2.97368
      H    H2462    16.54285   20.07902   -1.50580
      O    O2463     2.58485    3.81167    3.68662
      H    H2464     2.23633    4.26805    4.45244
      H    H2465     2.25362    2.91738    3.76886
      O    O2466     4.19129   16.98363    7.85194
      H    H2467     4.14825   16.61292    8.73338
      H    H2468     4.32239   17.92139    7.99212
      O    O2469     7.89189   18.53959    3.45291
      H    H2470     7.65103   18.80705    2.56596
      H    H2471     8.83216   18.71016    3.50800
      O    O2472    10.09733    5.00286    7.20856
      H    H2473    10.03622    5.59504    7.95810
      H    H2474    11.03737    4.89546    7.06359
      O    O2475    12.73479    4.65987    6.84779
      H    H2476    13.34883    4.97779    6.18590
      H    H2477    13.27975    4.17472    7.46738
      O    O2478    19.15231   20.55903    4.25397
      H    H2479    18.65814   20.95592    3.53669
      H    H2480    18.54364   19.93395    4.64770
      O    O2481     3.25692    3.33929    6.96170
      H    H2482     3.80522    3.15810    6.19831
      H    H2483     3.32245    2.54870    7.49733
      O    O2484     4.03009   19.92986    4.97172
      H    H2485     3.43612   19.79833    5.71072
      H    H2486     4.02248   19.09367    4.50593
      O    O2487    13.47559    3.22308    3.17472
      H    H2488    12.60158    3.55659    2.97201
      H    H2489    13.36667    2.75040    3.99991
      O    O2490    14.38279    5.43017    4.55889
      H    H2491    14.05413    4.61534    4.17906
      H    H2492    15.33102    5.38715    4.43546
      O    O2493     3.66132   17.29569    3.92252
      H    H2494     2.93472   16.67622    3.85512
      H    H2495     3.72223   17.68976    3.05233
      O    O2496     7.26583   19.51019    0.70746
      H    H2497     7.78233   18.89893    0.18229
      H    H2498     7.91556   20.01307    1.19856
      O    O2499    10.00538   20.40104    1.53436
      H    H2500    10.29316   20.14647    0.65766
      H    H2501    10.51770   19.84878    2.12492
      O    O2502    11.22308    4.14006    2.11401
      H    H2503    10.44026    4.61461    2.39369
      H    H2504    10.92937    3.23555    2.00533
      O    O2505    15.77518    4.84237    0.15892
      H    H2506    16.21599    4.78688   -0.68892
      H    H2507    15.50594    5.75817    0.22994
      O    O2508    17.63904    4.47390   -1.83020
      H    H2509    17.57788    3.53002   -1.97710
      H    H2510    18.41824    4.58191   -1.28485
      O    O2511     1.94432   20.61313   -2.86780
      H    H2512     1.77652   19.98020   -2.16961
      H    H2513     1.07777   20.81907   -3.21838
      O    O2514     2.56712    4.44481   -5.36462
      H    H2515     3.32505    4.55770   -5.93821
      H    H2516     2.10483    5.28173   -5.41027
      O    O2517     9.10850    6.55874   -2.37439
      H    H2518     8.29595    6.18443   -2.71480
      H    H2519     9.61266    5.80325   -2.07227
      O    O2520    13.61100    3.22298   -1.13608
      H    H2521    14.21393    3.79500   -0.66123
      H    H2522    12.87030    3.78693   -1.35869
      O    O2523    16.75446    3.62514   -5.86205
      H    H2524    16.94952    4.52348   -5.59531
      H    H2525    15.96744    3.39385   -5.36876
      O    O2526     3.55059   19.30646   -5.42279
      H    H2527     3.02535   19.68726   -6.12659
      H    H2528     3.47504   19.93153   -4.70182
      O    O2529     4.93963    4.97122   -6.82442
      H    H2530     5.46891    4.18420   -6.95363
      H    H2531     5.57246    5.65034   -6.59087
      O    O2532     7.13342    4.70873   -3.76988
      H    H2533     6.50369    4.00746   -3.60287
      H    H2534     6.59393    5.46914   -3.98657
      O    O2535    10.07261   21.32265    8.90118
      H    H2536    10.99934   21.08708    8.94478
      H    H2537    10.05765   22.14985    8.41978
      O    O2538    18.30712   20.86521   -4.10140
      H    H2539    18.48234   20.17898   -4.74530
      H    H2540    17.60927   21.38992   -4.49373
      O    O2541     7.25897    3.98713    8.66537
      H    H2542     6.97740    4.49049    7.90145
      H    H2543     7.64094    3.18930    8.29958
      O    O2544     6.14988   21.25469   -6.54786
      H    H2545     6.88176   20.97062   -7.09548
      H    H2546     6.40925   21.01602   -5.65793
      O    O2547     5.31136   17.37117   -6.54323
      H    H2548     4.68225   17.83968   -5.99465
      H    H2549     5.42614   16.52609   -6.10861
      O    O2550    13.86052    3.40249    9.24341
      H    H2551    13.74706    3.72195   10.13857
      H    H2552    14.67749    3.80374    8.94714
      O    O2553    16.64037   20.54964    8.72528
      H    H2554    17.43290   20.05456    8.51788
      H    H2555    16.93368   21.22865    9.33284
      O    O2556    31.54068   11.42173   -1.61876
      H    H2557    31.46009   10.50719   -1.88959
      H    H2558    31.12713   11.91844   -2.32479
      O    O2559    29.67249   13.19964    0.26216
      H    H2560    28.89670   12.71968    0.55202
      H    H2561    30.32378   12.52020    0.08778
      O    O2562    33.69323   17.60565   -0.95792
      H    H2563    33.23138   16.83438   -0.62921
      H    H2564    34.50579   17.63226   -0.45268
      O    O2565    22.09827    8.47181   -5.07602
      H    H2566    21.20994    8.81340   -5.17803
      H    H2567    22.38238    8.27184   -5.96794
      O    O2568    20.06157   11.07237    0.80795
      H    H2569    20.63318   10.30459    0.80831
      H    H2570    20.06172   11.37125   -0.10139
      O    O2571    29.91956   19.89146   -1.33752
      H    H2572    29.30071   20.34721   -1.90808
      H    H2573    30.77474   20.04660   -1.73855
      O    O2574    29.11339   15.87535    0.26918
      H    H2575    29.04421   14.93435    0.10809
      H    H2576    29.87537   15.96550    0.84144
      O    O2577    21.30405    6.48081    2.59484
      H    H2578    21.12434    5.58338    2.87512
      H    H2579    20.90206    7.02799    3.26954
      O    O2580    30.14390    8.68239    0.49607
      H    H2581    30.52039    7.80958    0.38344
      H    H2582    30.04585    9.01826   -0.39488
      O    O2583    24.27440    7.05496   -4.04218
      H    H2584    24.38108    7.95533   -3.73531
      H    H2585    23.36364    7.00675   -4.33272
      O    O2586    33.92632    6.17744   -2.57109
      H    H2587    34.74728    5.68709   -2.52854
      H    H2588    33.95972    6.76720   -1.81791
      O    O2589    21.92272    8.97686    1.20308
      H    H2590    22.60373    9.24069    1.82182
      H    H2591    21.60753    8.13694    1.53688
      O    O2592    38.21627    8.19411    3.99327
      H    H2593    37.51149    8.58228    3.47478
      H    H2594    38.48206    8.88914    4.59536
      O    O2595    24.39879    4.66345    4.55668
      H    H2596    24.40063    5.18069    3.75127
      H    H2597    23.56922    4.18647    4.53367
      O    O2598    30.78590   14.77538   -3.94433
      H    H2599    30.16762   15.24032   -4.50806
      H    H2600    31.29822   15.46813   -3.52738
      O    O2601    34.16246    8.11747    0.20166
      H    H2602    33.45802    8.40596    0.78197
      H    H2603    34.52368    8.92749   -0.15838
      O    O2604    24.08032    6.37444    2.56372
      H    H2605    24.42200    7.21865    2.26911
      H    H2606    23.14190    6.52282    2.68026
      O    O2607    20.15422   15.46103   -6.57037
      H    H2608    19.77701   15.94974   -7.30188
      H    H2609    20.41152   16.13356   -5.93972
      O    O2610    35.77874   17.73499    2.46441
      H    H2611    35.09509   18.40490    2.45608
      H    H2612    36.31817   17.93305    1.69890
      O    O2613    37.23116    7.56295    0.59258
      H    H2614    36.28365    7.59685    0.72413
      H    H2615    37.55615    8.37685    0.97752
      O    O2616    27.76311    3.86267   -1.11182
      H    H2617    28.07061    3.30736   -1.82827
      H    H2618    26.83318    3.99712   -1.29452
      O    O2619    33.31462   19.57940    1.17893
      H    H2620    33.32733   19.17563    0.31115
      H    H2621    32.76214   20.35413    1.07507
      O    O2622    34.60916   16.30102   -3.73206
      H    H2623    34.49879   15.35846   -3.60711
      H    H2624    34.60598   16.66259   -2.84578
      O    O2625    32.71316   14.48238    2.50719
      H    H2626    33.13004   14.26840    1.67253
      H    H2627    33.43714   14.73966    3.07805
      O    O2628    30.15119   11.92755   -4.37581
      H    H2629    29.22411   11.86129   -4.14696
      H    H2630    30.30367   12.86557   -4.49028
      O    O2631    30.13809    8.19925   -7.37909
      H    H2632    29.19846    8.36065   -7.29384
      H    H2633    30.45642    8.91782   -7.92549
      O    O2634    36.65937   12.88111    2.59881
      H    H2635    35.83123   12.95042    2.12383
      H    H2636    37.25442   13.46654    2.13040
      O    O2637    34.18091   13.48958   -3.87228
      H    H2638    33.56216   13.15154   -4.51965
      H    H2639    34.16336   12.84556   -3.16436
      O    O2640    33.62357    9.66804    3.54430
      H    H2641    33.21069   10.49341    3.79830
      H    H2642    32.89117    9.08254    3.35194
      O    O2643    34.31358   19.71397    4.23240
      H    H2644    33.83664   20.52119    4.03966
      H    H2645    33.62976   19.06180    4.38502
      O    O2646    32.35738   12.72827   -6.86501
      H    H2647    32.79671   11.89051   -7.01122
      H    H2648    33.07023   13.36121   -6.77859
      O    O2649    30.46692   17.66787   -2.89688
      H    H2650    30.90651   18.41031   -3.31134
      H    H2651    30.40561   17.91053   -1.97299
      O    O2652    35.93910    3.98255   -8.55090
      H    H2653    35.62636    4.07523   -7.65100
      H    H2654    36.70035    4.56065   -8.60116
      O    O2655    22.45731   11.34853   -4.09317
      H    H2656    22.33707   12.07474   -4.70504
      H    H2657    22.14740   10.57882   -4.57038
      O    O2658    37.89350   19.47517    9.30154
      H    H2659    38.36947   19.95345    9.98044
      H    H2660    38.51422   19.40691    8.57609
      O    O2661    21.34061   16.22006   -1.87569
      H    H2662    20.93342   16.36152   -2.73033
      H    H2663    22.23191   15.93608   -2.07857
      O    O2664    37.29683   16.66645    6.46154
      H    H2665    37.42313   16.42764    5.54326
      H    H2666    37.33896   15.83490    6.93375
      O    O2667    31.15850   20.36925    5.03102
      H    H2668    31.67297   20.28005    5.83326
      H    H2669    30.31541   20.71522    5.32381
      O    O2670    33.13394   20.65478   -5.54058
      H    H2671    32.97405   20.36508   -4.64240
      H    H2672    32.96861   19.87880   -6.07606
      O    O2673    25.61278   20.43464   -3.76342
      H    H2674    25.43703   19.51819   -3.97664
      H    H2675    24.75835   20.79337   -3.52364
      O    O2676    32.83655   18.16354   -6.98078
      H    H2677    32.14307   18.16127   -7.64055
      H    H2678    33.57884   17.73947   -7.41136
      O    O2679    32.40155   19.78981   -2.90593
      H    H2680    32.85724   19.00875   -2.59207
      H    H2681    32.74080   20.50049   -2.36181
      O    O2682    37.14923    8.71970    7.42651
      H    H2683    36.53365    9.22766    6.89806
      H    H2684    36.82887    7.81953    7.36911
      O    O2685    24.92368    4.69203   -0.71080
      H    H2686    24.48049    5.47299   -1.04235
      H    H2687    25.48218    5.01502   -0.00371
      O    O2688    29.21066    7.55889    4.89273
      H    H2689    28.74860    7.76719    5.70472
      H    H2690    28.80847    6.74482    4.58980
      O    O2691    34.21111    8.77978    6.02240
      H    H2692    33.36047    8.48036    6.34330
      H    H2693    34.05129    9.02398    5.11078
      O    O2694    31.30608   10.27996    8.12228
      H    H2695    31.63142    9.44633    7.78250
      H    H2696    32.09411   10.80281    8.27011
      O    O2697    28.03956    4.31310   -5.83022
      H    H2698    27.41498    4.30909   -5.10489
      H    H2699    27.95257    3.44620   -6.22662
      O    O2700    26.96127    5.23677    1.14816
      H    H2701    27.25850    6.14305    1.06736
      H    H2702    27.50982    4.74864    0.53412
      O    O2703    24.71510    9.81539   -2.98268
      H    H2704    24.48919    9.59911   -2.07801
      H    H2705    23.93435   10.24824   -3.32808
      O    O2706    31.94488    9.82173   -4.38361
      H    H2707    31.34577   10.54531   -4.56725
      H    H2708    32.49284    9.75941   -5.16597
      O    O2709    30.55136    8.45808   -2.35328
      H    H2710    30.94432    8.77530   -3.16641
      H    H2711    30.91305    7.57927   -2.23883
      O    O2712    22.28608    7.12532    5.83673
      H    H2713    21.89241    7.97284    6.04401
      H    H2714    21.59792    6.48795    6.02759
      O    O2715    28.86058    7.20881    8.90640
      H    H2716    28.17041    7.01603    9.54101
      H    H2717    29.60381    7.49228    9.43883
      O    O2718    19.58778    5.04816   -0.13026
      H    H2719    19.29909    5.61845    0.58223
      H    H2720    20.33236    4.56861    0.23286
      O    O2721    31.13688   11.04866    1.74179
      H    H2722    30.40499   11.55734    2.09080
      H    H2723    30.73931   10.23165    1.44067
      O    O2724    27.57462    7.72408    0.14704
      H    H2725    27.57822    7.28307   -0.70250
      H    H2726    28.46973    8.04581    0.25423
      O    O2727    23.42485    7.60673   -0.89354
      H    H2728    23.08486    8.08425   -0.13683
      H    H2729    22.66259    7.15324   -1.25343
      O    O2730    27.63663    8.72528   -6.86228
      H    H2731    27.75791    8.68393   -5.91370
      H    H2732    27.25148    9.58770   -7.01761
      O    O2733    31.59947    6.50202    1.15409
      H    H2734    31.61674    6.95289    1.99827
      H    H2735    31.35103    5.60259    1.36743
      O    O2736    26.64878   11.03540   -7.46395
      H    H2737    26.08047   10.58722   -8.09036
      H    H2738    27.35768   11.39468   -7.99744
      O    O2739    35.02654    3.91524    6.99273
      H    H2740    35.35112    3.18421    7.51852
      H    H2741    35.06219    3.59661    6.09083
      O    O2742    20.73946    6.52862   -1.97707
      H    H2743    20.45415    6.16419   -1.13921
      H    H2744    20.67735    5.79667   -2.59075
      O    O2745    24.19353   15.03122   -5.19131
      H    H2746    23.41976   14.49098   -5.35144
      H    H2747    24.92299   14.51188   -5.52953
      O    O2748    34.95233   14.02775    0.60133
      H    H2749    35.67224   14.52328    0.21094
      H    H2750    34.75051   13.34954   -0.04328
      O    O2751    30.41332    5.42155   -5.25573
      H    H2752    29.59978    4.92287   -5.33120
      H    H2753    30.21952    6.26137   -5.67210
      O    O2754    30.33421   14.09866    6.48823
      H    H2755    30.26794   13.17823    6.23399
      H    H2756    29.70472   14.19620    7.20269
      O    O2757    33.12816    9.79351   -6.95952
      H    H2758    34.01612   10.10524   -7.13438
      H    H2759    33.09867    8.92074   -7.35146
      O    O2760    24.23727   14.69926   -1.55343
      H    H2761    24.75514   13.89608   -1.60774
      H    H2762    23.78567   14.63717   -0.71175
      O    O2763    29.12422   15.96588   -6.28070
      H    H2764    29.46579   16.71011   -6.77637
      H    H2765    28.29549   16.27900   -5.91822
      O    O2766    30.26588   16.92072    6.23861
      H    H2767    30.28033   15.98881    6.02050
      H    H2768    29.55839   17.00669    6.87759
      O    O2769    35.39959   11.10470   -7.49153
      H    H2770    35.31596   11.53612   -8.34189
      H    H2771    36.11901   11.56453   -7.05885
      O    O2772    36.47700   13.56145    5.58547
      H    H2773    35.75182   14.15433    5.38841
      H    H2774    37.00455   13.55380    4.78680
      O    O2775    36.42831   17.95892   -4.76332
      H    H2776    35.78593   17.30449   -4.48894
      H    H2777    36.04138   18.36443   -5.53925
      O    O2778    32.00696   15.28747   -0.91615
      H    H2779    32.35934   14.69028   -1.57601
      H    H2780    31.12319   14.96189   -0.74532
      O    O2781    28.09329   16.04724   -3.50911
      H    H2782    28.78040   16.59416   -3.12835
      H    H2783    27.30653   16.59131   -3.47415
      O    O2784    20.23253   11.66452   -8.01740
      H    H2785    21.10201   11.94700   -7.73381
      H    H2786    19.74156   12.47811   -8.13252
      O    O2787    27.39601   13.05184   -3.89657
      H    H2788    27.85229   13.86236   -3.67055
      H    H2789    27.04483   12.73415   -3.06472
      O    O2790    29.69927   18.56247    3.33266
      H    H2791    30.34349   18.76841    4.01000
      H    H2792    30.06221   17.80131    2.87974
      O    O2793    23.29719    3.39560   -3.42432
      H    H2794    23.16865    3.38739   -2.47583
      H    H2795    22.47339    3.73391   -3.77522
      O    O2796    30.97248   16.56571    2.05040
      H    H2797    31.61470   15.86502    2.16362
      H    H2798    31.49741   17.34555    1.87009
      O    O2799    34.81805   16.85057   -8.22568
      H    H2800    34.59181   16.13361   -7.63322
      H    H2801    34.42767   16.60181   -9.06351
      O    O2802    32.74624   17.36520    5.25401
      H    H2803    33.08186   17.95187    5.93180
      H    H2804    31.82627   17.23447    5.48379
      O    O2805    20.59965   20.87726   -7.45124
      H    H2806    20.95942   21.47619   -8.10551
      H    H2807    20.45889   21.42325   -6.67773
      O    O2808    20.29658    5.15472    6.03635
      H    H2809    19.58243    5.35441    6.64161
      H    H2810    20.71608    4.37867    6.40783
      O    O2811    34.39968   14.76776   -6.56427
      H    H2812    34.11185   15.22903   -5.77648
      H    H2813    35.19489   14.30754   -6.29584
      O    O2814    28.57510   17.41433    8.42282
      H    H2815    28.25479   16.69526    8.96739
      H    H2816    27.90093   18.08984    8.49642
      O    O2817    26.61652   18.26038   -6.63387
      H    H2818    26.60753   18.99335   -7.24942
      H    H2819    25.69635   18.01353   -6.54117
      O    O2820    22.21718   13.48187   -5.88919
      H    H2821    21.60997   14.22176   -5.87966
      H    H2822    22.69211   13.57180   -6.71537
      O    O2823    31.79046    7.64695    3.78650
      H    H2824    32.15854    6.82647    4.11445
      H    H2825    30.93028    7.70714    4.20206
      O    O2826    35.15666    6.60264   -5.40475
      H    H2827    34.52798    6.70721   -6.11892
      H    H2828    34.66185    6.82232   -4.61536
      O    O2829    29.60248   18.32320   -7.97135
      H    H2830    29.70367   18.11960   -8.90115
      H    H2831    28.70265   18.06903   -7.76657
      O    O2832    27.12506    8.88124   -3.98896
      H    H2833    26.41668    9.34987   -3.54760
      H    H2834    27.40951    8.22344   -3.35444
      O    O2835    28.75066   10.30091    4.01029
      H    H2836    29.24918   10.77549    4.67548
      H    H2837    28.89295    9.37726    4.21730
      O    O2838    31.15661    5.60630   -2.54938
      H    H2839    31.03339    5.62492   -3.49843
      H    H2840    32.10506    5.65420   -2.42954
      O    O2841    28.24429   20.84183   -3.27658
      H    H2842    28.49844   20.80397   -4.19865
      H    H2843    27.29553   20.71517   -3.28376
      O    O2844    25.32857    7.18974   -6.61389
      H    H2845    26.17762    7.62676   -6.67987
      H    H2846    24.96169    7.50177   -5.78668
      O    O2847    35.95734    6.51770    4.85313
      H    H2848    35.45470    7.25824    5.19251
      H    H2849    36.77301    6.90610    4.53681
      O    O2850    34.24954   11.76102   -1.70073
      H    H2851    33.30856   11.77604   -1.52596
      H    H2852    34.56395   10.97462   -1.25470
      O    O2853    24.22771   13.44298   -8.14034
      H    H2854    24.99404   13.33112   -7.57779
      H    H2855    24.30518   12.74678   -8.79266
      O    O2856    22.92238   10.87549   -7.45705
      H    H2857    23.00274    9.92824   -7.34531
      H    H2858    23.81436   11.20618   -7.35098
      O    O2859    36.25210   18.93191   -0.02531
      H    H2860    36.37684   19.75502    0.44708
      H    H2861    37.11866   18.72098   -0.37289
      O    O2862    23.72386   21.02503   -0.35359
      H    H2863    24.46010   20.47657   -0.08274
      H    H2864    24.10795   21.89063   -0.49299
      O    O2865    20.60840   17.09238   -4.47944
      H    H2866    19.68238   17.33450   -4.48890
      H    H2867    21.07405   17.91981   -4.60097
      O    O2868    26.83409   20.19806   -8.53104
      H    H2869    27.62695   20.48694   -8.98286
      H    H2870    26.31452   19.76727   -9.20979
      O    O2871    31.56615   16.31762    8.78251
      H    H2872    30.95996   16.34078    8.04208
      H    H2873    31.26156   15.58592    9.31923
      O    O2874    32.99618   20.04565    7.39345
      H    H2875    33.94836   19.96145    7.34347
      H    H2876    32.84901   20.70982    8.06683
      O    O2877    35.88710   19.42507   -7.10736
      H    H2878    35.60125   19.01158   -7.92194
      H    H2879    35.68906   20.35384   -7.22731
      O    O2880    27.35183   15.41840   -8.66680
      H    H2881    27.24689   14.80363   -7.94066
      H    H2882    27.18425   14.89499   -9.45050
      O    O2883    30.59210   14.48040   -8.06260
      H    H2884    30.04311   14.92733   -7.41833
      H    H2885    31.21403   13.97533   -7.53883
      O    O2886    34.64559   15.83461    7.86962
      H    H2887    35.38654   16.17219    7.36637
      H    H2888    33.88286   16.00382    7.31660
      O    O2889    26.25961   13.43949   -6.16607
      H    H2890    26.68125   13.27348   -5.32293
      H    H2891    26.38470   12.62952   -6.66056
      O    O2892    28.77238   12.46325   -8.91836
      H    H2893    29.29294   11.74816   -9.28425
      H    H2894    29.41922   13.10184   -8.61831
      O    O2895    33.32016   13.88609    6.40515
      H    H2896    33.73426   14.04060    7.25419
      H    H2897    32.38526   14.01162    6.56772
      O    O2898    33.79238   11.22571    8.40906
      H    H2899    34.37445   10.47094    8.32111
      H    H2900    33.96855   11.75645    7.63221
      O    O2901    24.90958    6.38539    6.72076
      H    H2902    24.81527    5.76746    5.99584
      H    H2903    24.32932    7.11201    6.49375
      O    O2904    27.67573    4.94271    3.75349
      H    H2905    27.22746    4.96514    2.90805
      H    H2906    27.04225    4.54461    4.35052
      O    O2907    30.41807   11.56976    5.75852
      H    H2908    30.53769   10.97387    6.49801
      H    H2909    31.27747   11.60673    5.33865
      O    O2910    32.75686   12.12348    4.33477
      H    H2911    32.23038   12.64774    3.73129
      H    H2912    33.10000   12.75622    4.96575
      O    O2913    27.18495    8.11190    7.01610
      H    H2914    27.77492    7.80348    7.70389
      H    H2915    26.36697    7.63987    7.17209
      O    O2916    32.00429    7.72848    7.24941
      H    H2917    31.31584    7.06663    7.18441
      H    H2918    32.72489    7.28230    7.69425
      O    O2919    32.63433    4.32364   -6.69157
      H    H2920    32.91456    3.48043   -6.33563
      H    H2921    31.86091    4.55595   -6.17769
      O    O2922    28.78865   21.37856    5.74918
      H    H2923    28.71452   22.28208    6.05641
      H    H2924    27.88653   21.05975    5.72138
      O    O2925    27.17227    5.55634   -8.24685
      H    H2926    26.82447    4.87874   -8.82660
      H    H2927    27.37355    5.09529   -7.43251
      O    O2928    29.33718   20.54442   -6.62819
      H    H2929    30.23226   20.88291   -6.60631
      H    H2930    29.36894   19.82236   -7.25576
      O    O2931    22.97679   15.91712   -8.39949
      H    H2932    23.41428   16.46009   -7.74373
      H    H2933    23.46157   15.09182   -8.38985
      O    O2934    20.19137   18.70602   -0.94746
      H    H2935    20.52168   17.83813   -1.17960
      H    H2936    20.62047   18.91188   -0.11697
      O    O2937    24.78757   17.03692   -3.28726
      H    H2938    24.48712   16.91342   -2.38687
      H    H2939    24.68132   16.17778   -3.69569
      O    O2940    20.68040   19.57308    1.79070
      H    H2941    20.24349   19.75316    2.62312
      H    H2942    21.24816   20.33054    1.64887
      O    O2943    36.31661   19.07478    6.07843
      H    H2944    35.71681   19.13404    5.33482
      H    H2945    36.44600   18.13528    6.20812
      O    O2946    37.55676   16.81656   -8.58460
      H    H2947    36.72605   16.88423   -8.11387
      H    H2948    37.73394   17.70698   -8.88791
      O    O2949    37.01240   13.56131   -6.08118
      H    H2950    37.77430   14.13098   -5.97521
      H    H2951    37.02784   12.99403   -5.31035
      O    O2952    20.51284   12.08511   -1.85041
      H    H2953    19.85772   11.81627   -2.49444
      H    H2954    21.35063   11.97555   -2.30021
      O    O2955    38.01840   14.41632   -1.23698
      H    H2956    38.38928   13.63305   -1.64339
      H    H2957    38.65859   15.10523   -1.41525
      O    O2958    35.00178   15.79998    4.17605
      H    H2959    34.18776   16.22970    4.43863
      H    H2960    35.40920   16.41182    3.56295
      O    O2961    37.06432   13.85475   -8.92392
      H    H2962    37.33921   14.76264   -9.05200
      H    H2963    36.87540   13.79100   -7.98773
      O    O2964    33.46188    6.87923   -7.62856
      H    H2965    33.88037    6.69233   -8.46890
      H    H2966    33.15549    6.02714   -7.31827
      O    O2967    36.96086   11.79165   -3.93098
      H    H2968    36.58522   11.02444   -4.36285
      H    H2969    36.23117   12.17392   -3.44349
      O    O2970    36.35082   10.93880    5.70297
      H    H2971    36.11943   10.71008    4.80277
      H    H2972    36.61127   11.85876    5.65746
      O    O2973    21.10203    9.38127    6.59577
      H    H2974    20.20764    9.34795    6.93514
      H    H2975    21.64179    9.57995    7.36089
      O    O2976    34.78962    6.16444    8.48094
      H    H2977    35.66664    6.17278    8.86434
      H    H2978    34.80171    5.42753    7.87018
      O    O2979    19.72665    9.29500   -5.90788
      H    H2980    18.82305    9.55802   -6.08271
      H    H2981    20.21071    9.56612   -6.68788
      O    O2982    36.23595   10.01740   -0.63026
      H    H2983    36.75970    9.52366   -1.26124
      H    H2984    36.82189   10.15243    0.11450
      O    O2985    36.41492   10.10138    2.89170
      H    H2986    35.46519   10.06774    3.00620
      H    H2987    36.59622   11.01140    2.65667
      O    O2988    22.26937    8.35155   -7.99844
      H    H2989    22.97854    7.92987   -8.48371
      H    H2990    21.55336    8.41908   -8.63010
      O    O2991    35.72595    9.27473   -4.69102
      H    H2992    36.22186    9.04182   -3.90613
      H    H2993    35.52756    8.43592   -5.10725
      O    O2994    21.60600    3.65610    0.94409
      H    H2995    22.25362    3.10584    0.50360
      H    H2996    22.02619    3.91042    1.76567
      O    O2997    37.15466    7.91083   -2.15725
      H    H2998    37.04459    7.75643   -1.21902
      H    H2999    37.91542    7.38292   -2.39971
      O    O3000    35.50124    3.85024    4.30105
      H    H3001    36.13846    4.46365    4.66697
      H    H3002    35.64873    3.88631    3.35597
      O    O3003    38.04369    5.74162   -8.91663
      H    H3004    38.96862    5.60974   -9.12481
      H    H3005    38.02127    5.82090   -7.96299
      O    O3006    38.11754    6.51269   -6.29096
      H    H3007    37.32269    6.44720   -5.76167
      H    H3008    38.32187    7.44775   -6.30243
      O    O3009    35.05938   20.55184   -2.29712
      H    H3010    35.65529   20.23030   -2.97368
      H    H3011    35.31720   20.07902   -1.50580
      O    O3012    21.35920    3.81167    3.68662
      H    H3013    21.01068    4.26805    4.45244
      H    H3014    21.02797    2.91738    3.76886
      O    O3015    28.87168    5.00286    7.20856
      H    H3016    28.81057    5.59504    7.95810
      H    H3017    29.81172    4.89546    7.06359
      O    O3018    31.50914    4.65987    6.84779
      H    H3019    32.12318    4.97779    6.18590
      H    H3020    32.05410    4.17472    7.46738
      O    O3021    37.92666   20.55903    4.25397
      H    H3022    37.43249   20.95592    3.53669
      H    H3023    37.31799   19.93395    4.64770
      O    O3024    22.03127    3.33929    6.96170
      H    H3025    22.57957    3.15810    6.19831
      H    H3026    22.09680    2.54870    7.49733
      O    O3027    32.24994    3.22308    3.17472
      H    H3028    31.37593    3.55659    2.97201
      H    H3029    32.14102    2.75040    3.99991
      O    O3030    33.15714    5.43017    4.55889
      H    H3031    32.82848    4.61534    4.17906
      H    H3032    34.10537    5.38715    4.43546
      O    O3033    35.61060   21.20137    1.53265
      H    H3034    35.15090   21.95295    1.15845
      H    H3035    34.98185   20.48202    1.47413
      O    O3036    28.77973   20.40104    1.53436
      H    H3037    29.06751   20.14647    0.65766
      H    H3038    29.29205   19.84878    2.12492
      O    O3039    29.99743    4.14006    2.11401
      H    H3040    29.21461    4.61461    2.39369
      H    H3041    29.70372    3.23555    2.00533
      O    O3042    34.54953    4.84237    0.15892
      H    H3043    34.99034    4.78688   -0.68892
      H    H3044    34.28029    5.75817    0.22994
      O    O3045    36.41339    4.47390   -1.83020
      H    H3046    36.35223    3.53002   -1.97710
      H    H3047    37.19259    4.58191   -1.28485
      O    O3048    20.71867   20.61313   -2.86780
      H    H3049    20.55087   19.98020   -2.16961
      H    H3050    19.85212   20.81907   -3.21838
      O    O3051    21.34147    4.44481   -5.36462
      H    H3052    22.09940    4.55770   -5.93821
      H    H3053    20.87918    5.28173   -5.41027
      O    O3054    27.88285    6.55874   -2.37439
      H    H3055    27.07030    6.18443   -2.71480
      H    H3056    28.38701    5.80325   -2.07227
      O    O3057    32.38535    3.22298   -1.13608
      H    H3058    32.98828    3.79500   -0.66123
      H    H3059    31.64465    3.78693   -1.35869
      O    O3060    35.52881    3.62514   -5.86205
      H    H3061    35.72387    4.52348   -5.59531
      H    H3062    34.74179    3.39385   -5.36876
      O    O3063    22.32494   19.30646   -5.42279
      H    H3064    21.79970   19.68726   -6.12659
      H    H3065    22.24939   19.93153   -4.70182
      O    O3066    23.71398    4.97122   -6.82442
      H    H3067    24.24326    4.18420   -6.95363
      H    H3068    24.34681    5.65034   -6.59087
      O    O3069    25.90777    4.70873   -3.76988
      H    H3070    25.27804    4.00746   -3.60287
      H    H3071    25.36828    5.46914   -3.98657
      O    O3072    28.84696   21.32265    8.90118
      H    H3073    29.77369   21.08708    8.94478
      H    H3074    28.83200   22.14985    8.41978
      O    O3075    37.08147   20.86521   -4.10140
      H    H3076    37.25669   20.17898   -4.74530
      H    H3077    36.38362   21.38992   -4.49373
      O    O3078    26.03332    3.98713    8.66537
      H    H3079    25.75175    4.49049    7.90145
      H    H3080    26.41529    3.18930    8.29958
      O    O3081    24.92423   21.25469   -6.54786
      H    H3082    25.65611   20.97062   -7.09548
      H    H3083    25.18360   21.01602   -5.65793
      O    O3084    24.08571   17.37117   -6.54323
      H    H3085    23.45660   17.83968   -5.99465
      H    H3086    24.20049   16.52609   -6.10861
      O    O3087    32.63487    3.40249    9.24341
      H    H3088    32.52141    3.72195   10.13857
      H    H3089    33.45184    3.80374    8.94714
      O    O3090    35.41472   20.54964    8.72528
      H    H3091    36.20725   20.05456    8.51788
      H    H3092    35.70803   21.22865    9.33284
      O    O3093    -6.00802   30.19608   -1.61876
      H    H3094    -6.08861   29.28154   -1.88959
      H    H3095    -6.42157   30.69279   -2.32479
      O    O3096    -7.87621   31.97399    0.26216
      H    H3097    -8.65200   31.49403    0.55202
      H    H3098    -7.22492   31.29455    0.08778
      O    O3099    -3.85547   36.38000   -0.95792
      H    H3100    -4.31732   35.60873   -0.62921
      H    H3101    -3.04291   36.40661   -0.45268
      O    O3102    -7.62914   38.66581   -1.33752
      H    H3103    -8.24799   39.12156   -1.90808
      H    H3104    -6.77396   38.82095   -1.73855
      O    O3105    -8.43531   34.64970    0.26918
      H    H3106    -8.50449   33.70870    0.10809
      H    H3107    -7.67333   34.73985    0.84144
      O    O3108    -7.40480   27.45674    0.49607
      H    H3109    -7.02831   26.58393    0.38344
      H    H3110    -7.50285   27.79261   -0.39488
      O    O3111    -3.62238   24.95179   -2.57109
      H    H3112    -2.80142   24.46144   -2.52854
      H    H3113    -3.58898   25.54155   -1.81791
      O    O3114     0.66757   26.96846    3.99327
      H    H3115    -0.03721   27.35663    3.47478
      H    H3116     0.93336   27.66349    4.59536
      O    O3117    -6.76280   33.54973   -3.94433
      H    H3118    -7.38108   34.01467   -4.50806
      H    H3119    -6.25048   34.24248   -3.52738
      O    O3120    -3.38624   26.89182    0.20166
      H    H3121    -4.09068   27.18031    0.78197
      H    H3122    -3.02502   27.70184   -0.15838
      O    O3123    -1.76996   36.50934    2.46441
      H    H3124    -2.45361   37.17925    2.45608
      H    H3125    -1.23053   36.70740    1.69890
      O    O3126    -0.31754   26.33730    0.59258
      H    H3127    -1.26505   26.37120    0.72413
      H    H3128     0.00745   27.15120    0.97752
      O    O3129    -4.23408   38.35375    1.17893
      H    H3130    -4.22137   37.94998    0.31115
      H    H3131    -4.78656   39.12848    1.07507
      O    O3132    -2.93954   35.07537   -3.73206
      H    H3133    -3.04991   34.13281   -3.60711
      H    H3134    -2.94272   35.43694   -2.84578
      O    O3135    -4.83554   33.25673    2.50719
      H    H3136    -4.41866   33.04275    1.67253
      H    H3137    -4.11156   33.51401    3.07805
      O    O3138    -7.39751   30.70190   -4.37581
      H    H3139    -8.32459   30.63564   -4.14696
      H    H3140    -7.24503   31.63992   -4.49028
      O    O3141    -7.41061   26.97360   -7.37909
      H    H3142    -8.35024   27.13500   -7.29384
      H    H3143    -7.09228   27.69217   -7.92549
      O    O3144    -0.88933   31.65546    2.59881
      H    H3145    -1.71747   31.72477    2.12383
      H    H3146    -0.29428   32.24089    2.13040
      O    O3147    -3.36779   32.26393   -3.87228
      H    H3148    -3.98654   31.92589   -4.51965
      H    H3149    -3.38534   31.61991   -3.16436
      O    O3150    -3.92513   28.44239    3.54430
      H    H3151    -4.33801   29.26776    3.79830
      H    H3152    -4.65753   27.85689    3.35194
      O    O3153    -3.23512   38.48832    4.23240
      H    H3154    -3.71206   39.29554    4.03966
      H    H3155    -3.91894   37.83615    4.38502
      O    O3156    -5.19132   31.50262   -6.86501
      H    H3157    -4.75199   30.66486   -7.01122
      H    H3158    -4.47847   32.13556   -6.77859
      O    O3159    -7.08178   36.44222   -2.89688
      H    H3160    -6.64219   37.18466   -3.31134
      H    H3161    -7.14309   36.68488   -1.97299
      O    O3162    -1.60960   22.75690   -8.55090
      H    H3163    -1.92234   22.84958   -7.65100
      H    H3164    -0.84835   23.33500   -8.60116
      O    O3165     0.34480   38.24952    9.30154
      H    H3166     0.82077   38.72780    9.98044
      H    H3167     0.96552   38.18126    8.57609
      O    O3168    -0.25187   35.44080    6.46154
      H    H3169    -0.12557   35.20199    5.54326
      H    H3170    -0.20974   34.60925    6.93375
      O    O3171    -6.39020   39.14360    5.03102
      H    H3172    -5.87573   39.05440    5.83326
      H    H3173    -7.23329   39.48957    5.32381
      O    O3174    -4.41476   39.42913   -5.54058
      H    H3175    -4.57465   39.13943   -4.64240
      H    H3176    -4.58009   38.65315   -6.07606
      O    O3177    -4.71215   36.93789   -6.98078
      H    H3178    -5.40563   36.93562   -7.64055
      H    H3179    -3.96986   36.51382   -7.41136
      O    O3180    -5.14715   38.56416   -2.90593
      H    H3181    -4.69146   37.78310   -2.59207
      H    H3182    -4.80790   39.27484   -2.36181
      O    O3183    -0.39947   27.49405    7.42651
      H    H3184    -1.01505   28.00201    6.89806
      H    H3185    -0.71983   26.59388    7.36911
      O    O3186    -8.33804   26.33324    4.89273
      H    H3187    -8.80010   26.54154    5.70472
      H    H3188    -8.74023   25.51917    4.58980
      O    O3189    -3.33759   27.55413    6.02240
      H    H3190    -4.18823   27.25471    6.34330
      H    H3191    -3.49741   27.79833    5.11078
      O    O3192    -6.24262   29.05431    8.12228
      H    H3193    -5.91728   28.22068    7.78250
      H    H3194    -5.45459   29.57716    8.27011
      O    O3195    -5.60382   28.59608   -4.38361
      H    H3196    -6.20293   29.31966   -4.56725
      H    H3197    -5.05586   28.53376   -5.16597
      O    O3198    -6.99734   27.23243   -2.35328
      H    H3199    -6.60438   27.54965   -3.16641
      H    H3200    -6.63565   26.35362   -2.23883
      O    O3201    -8.68812   25.98316    8.90640
      H    H3202    -9.37829   25.79038    9.54101
      H    H3203    -7.94489   26.26663    9.43883
      O    O3204    -6.41182   29.82301    1.74179
      H    H3205    -7.14371   30.33169    2.09080
      H    H3206    -6.80939   29.00600    1.44067
      O    O3207    -5.94923   25.27637    1.15409
      H    H3208    -5.93196   25.72724    1.99827
      H    H3209    -6.19767   24.37694    1.36743
      O    O3210    -2.52216   22.68959    6.99273
      H    H3211    -2.19758   21.95856    7.51852
      H    H3212    -2.48651   22.37096    6.09083
      O    O3213    -2.59637   32.80210    0.60133
      H    H3214    -1.87646   33.29763    0.21094
      H    H3215    -2.79819   32.12389   -0.04328
      O    O3216    -7.13538   24.19590   -5.25573
      H    H3217    -7.94892   23.69722   -5.33120
      H    H3218    -7.32918   25.03572   -5.67210
      O    O3219    -7.21449   32.87301    6.48823
      H    H3220    -7.28076   31.95258    6.23399
      H    H3221    -7.84398   32.97055    7.20269
      O    O3222    -4.42054   28.56786   -6.95952
      H    H3223    -3.53258   28.87959   -7.13438
      H    H3224    -4.45003   27.69509   -7.35146
      O    O3225    -8.42448   34.74023   -6.28070
      H    H3226    -8.08291   35.48446   -6.77637
      H    H3227    -9.25321   35.05335   -5.91822
      O    O3228    -7.28282   35.69507    6.23861
      H    H3229    -7.26837   34.76316    6.02050
      H    H3230    -7.99031   35.78104    6.87759
      O    O3231    -2.14911   29.87905   -7.49153
      H    H3232    -2.23274   30.31047   -8.34189
      H    H3233    -1.42969   30.33888   -7.05885
      O    O3234    -1.07170   32.33580    5.58547
      H    H3235    -1.79688   32.92868    5.38841
      H    H3236    -0.54415   32.32815    4.78680
      O    O3237    -1.12039   36.73327   -4.76332
      H    H3238    -1.76277   36.07884   -4.48894
      H    H3239    -1.50732   37.13878   -5.53925
      O    O3240    -5.54174   34.06182   -0.91615
      H    H3241    -5.18936   33.46463   -1.57601
      H    H3242    -6.42551   33.73624   -0.74532
      O    O3243    -7.84943   37.33682    3.33266
      H    H3244    -7.20521   37.54276    4.01000
      H    H3245    -7.48649   36.57566    2.87974
      O    O3246    -6.57622   35.34006    2.05040
      H    H3247    -5.93400   34.63937    2.16362
      H    H3248    -6.05129   36.11990    1.87009
      O    O3249    -2.73065   35.62492   -8.22568
      H    H3250    -2.95689   34.90796   -7.63322
      H    H3251    -3.12103   35.37616   -9.06351
      O    O3252    -4.80246   36.13955    5.25401
      H    H3253    -4.46684   36.72622    5.93180
      H    H3254    -5.72243   36.00882    5.48379
      O    O3255    -3.14902   33.54211   -6.56427
      H    H3256    -3.43685   34.00338   -5.77648
      H    H3257    -2.35381   33.08189   -6.29584
      O    O3258    -5.75824   26.42130    3.78650
      H    H3259    -5.39016   25.60082    4.11445
      H    H3260    -6.61842   26.48149    4.20206
      O    O3261    -2.39204   25.37699   -5.40475
      H    H3262    -3.02072   25.48156   -6.11892
      H    H3263    -2.88685   25.59667   -4.61536
      O    O3264    -7.94622   37.09755   -7.97135
      H    H3265    -7.84503   36.89395   -8.90115
      H    H3266    -8.84605   36.84338   -7.76657
      O    O3267    -8.79804   29.07526    4.01029
      H    H3268    -8.29952   29.54984    4.67548
      H    H3269    -8.65575   28.15161    4.21730
      O    O3270    -6.39209   24.38065   -2.54938
      H    H3271    -6.51531   24.39927   -3.49843
      H    H3272    -5.44364   24.42855   -2.42954
      O    O3273    -1.59136   25.29205    4.85313
      H    H3274    -2.09400   26.03259    5.19251
      H    H3275    -0.77569   25.68045    4.53681
      O    O3276    -3.29916   30.53537   -1.70073
      H    H3277    -4.24014   30.55039   -1.52596
      H    H3278    -2.98475   29.74897   -1.25470
      O    O3279    -1.29660   37.70626   -0.02531
      H    H3280    -1.17186   38.52937    0.44708
      H    H3281    -0.43004   37.49533   -0.37289
      O    O3282    -5.98255   35.09197    8.78251
      H    H3283    -6.58874   35.11513    8.04208
      H    H3284    -6.28714   34.36027    9.31923
      O    O3285    -4.55252   38.82000    7.39345
      H    H3286    -3.60034   38.73580    7.34347
      H    H3287    -4.69969   39.48417    8.06683
      O    O3288    -1.66160   38.19942   -7.10736
      H    H3289    -1.94745   37.78593   -7.92194
      H    H3290    -1.85964   39.12819   -7.22731
      O    O3291    -6.95660   33.25475   -8.06260
      H    H3292    -7.50559   33.70168   -7.41833
      H    H3293    -6.33467   32.74968   -7.53883
      O    O3294    -2.90311   34.60896    7.86962
      H    H3295    -2.16216   34.94654    7.36637
      H    H3296    -3.66584   34.77817    7.31660
      O    O3297    -8.77632   31.23760   -8.91836
      H    H3298    -8.25576   30.52251   -9.28425
      H    H3299    -8.12948   31.87619   -8.61831
      O    O3300    -4.22854   32.66044    6.40515
      H    H3301    -3.81444   32.81495    7.25419
      H    H3302    -5.16344   32.78597    6.56772
      O    O3303    -3.75632   30.00006    8.40906
      H    H3304    -3.17425   29.24529    8.32111
      H    H3305    -3.58015   30.53080    7.63221
      O    O3306    -7.13063   30.34411    5.75852
      H    H3307    -7.01101   29.74822    6.49801
      H    H3308    -6.27123   30.38108    5.33865
      O    O3309    -4.79184   30.89783    4.33477
      H    H3310    -5.31832   31.42209    3.73129
      H    H3311    -4.44870   31.53057    4.96575
      O    O3312    -5.54441   26.50283    7.24941
      H    H3313    -6.23286   25.84098    7.18441
      H    H3314    -4.82381   26.05665    7.69425
      O    O3315    -4.91437   23.09799   -6.69157
      H    H3316    -4.63414   22.25478   -6.33563
      H    H3317    -5.68779   23.33030   -6.17769
      O    O3318    -8.76005   40.15291    5.74918
      H    H3319    -8.83418   41.05643    6.05641
      H    H3320    -9.66217   39.83410    5.72138
      O    O3321    -8.21152   39.31877   -6.62819
      H    H3322    -7.31644   39.65726   -6.60631
      H    H3323    -8.17976   38.59671   -7.25576
      O    O3324    -1.23209   37.84913    6.07843
      H    H3325    -1.83189   37.90839    5.33482
      H    H3326    -1.10270   36.90963    6.20812
      O    O3327     0.00806   35.59091   -8.58460
      H    H3328    -0.82265   35.65858   -8.11387
      H    H3329     0.18524   36.48133   -8.88791
      O    O3330    -0.53630   32.33566   -6.08118
      H    H3331     0.22560   32.90533   -5.97521
      H    H3332    -0.52086   31.76838   -5.31035
      O    O3333     0.46970   33.19067   -1.23698
      H    H3334     0.84058   32.40740   -1.64339
      H    H3335     1.10989   33.87958   -1.41525
      O    O3336    -2.54692   34.57433    4.17605
      H    H3337    -3.36094   35.00405    4.43863
      H    H3338    -2.13950   35.18617    3.56295
      O    O3339    -0.48438   32.62910   -8.92392
      H    H3340    -0.20949   33.53699   -9.05200
      H    H3341    -0.67330   32.56535   -7.98773
      O    O3342    -4.08682   25.65358   -7.62856
      H    H3343    -3.66833   25.46668   -8.46890
      H    H3344    -4.39321   24.80149   -7.31827
      O    O3345    -0.58784   30.56600   -3.93098
      H    H3346    -0.96348   29.79879   -4.36285
      H    H3347    -1.31753   30.94827   -3.44349
      O    O3348    -1.19788   29.71315    5.70297
      H    H3349    -1.42927   29.48443    4.80277
      H    H3350    -0.93743   30.63311    5.65746
      O    O3351    -2.75908   24.93879    8.48094
      H    H3352    -1.88206   24.94713    8.86434
      H    H3353    -2.74699   24.20188    7.87018
      O    O3354    -1.31275   28.79175   -0.63026
      H    H3355    -0.78900   28.29801   -1.26124
      H    H3356    -0.72681   28.92678    0.11450
      O    O3357    -1.13378   28.87573    2.89170
      H    H3358    -2.08351   28.84209    3.00620
      H    H3359    -0.95248   29.78575    2.65667
      O    O3360    -1.82275   28.04908   -4.69102
      H    H3361    -1.32684   27.81617   -3.90613
      H    H3362    -2.02114   27.21027   -5.10725
      O    O3363    -0.39404   26.68518   -2.15725
      H    H3364    -0.50411   26.53078   -1.21902
      H    H3365     0.36672   26.15727   -2.39971
      O    O3366    -2.04746   22.62459    4.30105
      H    H3367    -1.41024   23.23800    4.66697
      H    H3368    -1.89997   22.66066    3.35597
      O    O3369     0.49499   24.51597   -8.91663
      H    H3370     1.41992   24.38409   -9.12481
      H    H3371     0.47257   24.59525   -7.96299
      O    O3372     0.56884   25.28704   -6.29096
      H    H3373    -0.22601   25.22155   -5.76167
      H    H3374     0.77317   26.22210   -6.30243
      O    O3375    -2.48932   39.32619   -2.29712
      H    H3376    -1.89341   39.00465   -2.97368
      H    H3377    -2.23150   38.85337   -1.50580
      O    O3378    -8.67702   23.77721    7.20856
      H    H3379    -8.73813   24.36939    7.95810
      H    H3380    -7.73698   23.66981    7.06359
      O    O3381    -6.03956   23.43422    6.84779
      H    H3382    -5.42552   23.75214    6.18590
      H    H3383    -5.49460   22.94907    7.46738
      O    O3384     0.37796   39.33338    4.25397
      H    H3385    -0.11621   39.73027    3.53669
      H    H3386    -0.23071   38.70830    4.64770
      O    O3387    -5.29876   21.99743    3.17472
      H    H3388    -6.17277   22.33094    2.97201
      H    H3389    -5.40768   21.52475    3.99991
      O    O3390    -4.39156   24.20452    4.55889
      H    H3391    -4.72022   23.38969    4.17906
      H    H3392    -3.44333   24.16150    4.43546
      O    O3393    -1.93810   39.97572    1.53265
      H    H3394    -2.39780   40.72730    1.15845
      H    H3395    -2.56685   39.25637    1.47413
      O    O3396    -8.76897   39.17539    1.53436
      H    H3397    -8.48119   38.92082    0.65766
      H    H3398    -8.25665   38.62313    2.12492
      O    O3399    -7.55127   22.91441    2.11401
      H    H3400    -8.33409   23.38896    2.39369
      H    H3401    -7.84498   22.00990    2.00533
      O    O3402    -2.99917   23.61672    0.15892
      H    H3403    -2.55836   23.56123   -0.68892
      H    H3404    -3.26841   24.53252    0.22994
      O    O3405    -1.13531   23.24825   -1.83020
      H    H3406    -1.19647   22.30437   -1.97710
      H    H3407    -0.35611   23.35626   -1.28485
      O    O3408    -5.16335   21.99733   -1.13608
      H    H3409    -4.56042   22.56935   -0.66123
      H    H3410    -5.90405   22.56128   -1.35869
      O    O3411    -2.01989   22.39949   -5.86205
      H    H3412    -1.82483   23.29783   -5.59531
      H    H3413    -2.80691   22.16820   -5.36876
      O    O3414    -8.70174   40.09700    8.90118
      H    H3415    -7.77501   39.86143    8.94478
      H    H3416    -8.71670   40.92420    8.41978
      O    O3417    -0.46723   39.63956   -4.10140
      H    H3418    -0.29201   38.95333   -4.74530
      H    H3419    -1.16508   40.16427   -4.49373
      O    O3420    -4.91383   22.17684    9.24341
      H    H3421    -5.02729   22.49630   10.13857
      H    H3422    -4.09686   22.57809    8.94714
      O    O3423    -2.13398   39.32399    8.72528
      H    H3424    -1.34145   38.82891    8.51788
      H    H3425    -1.84067   40.00300    9.33284
      O    O3426    12.76633   30.19608   -1.61876
      H    H3427    12.68574   29.28154   -1.88959
      H    H3428    12.35278   30.69279   -2.32479
      O    O3429    10.89814   31.97399    0.26216
      H    H3430    10.12235   31.49403    0.55202
      H    H3431    11.54943   31.29455    0.08778
      O    O3432     4.91472   32.28597    1.13974
      H    H3433     4.08321   32.03084    1.53939
      H    H3434     5.52282   32.35704    1.87553
      O    O3435    14.91888   36.38000   -0.95792
      H    H3436    14.45703   35.60873   -0.62921
      H    H3437    15.73144   36.40661   -0.45268
      O    O3438     4.89485   36.31998    1.33554
      H    H3439     5.19765   35.42975    1.15656
      H    H3440     5.63921   36.87700    1.10777
      O    O3441     3.32392   27.24616   -5.07602
      H    H3442     2.43559   27.58775   -5.17803
      H    H3443     3.60803   27.04619   -5.96794
      O    O3444     1.28722   29.84672    0.80795
      H    H3445     1.85883   29.07894    0.80831
      H    H3446     1.28737   30.14560   -0.10139
      O    O3447    11.14521   38.66581   -1.33752
      H    H3448    10.52636   39.12156   -1.90808
      H    H3449    12.00039   38.82095   -1.73855
      O    O3450    10.33904   34.64970    0.26918
      H    H3451    10.26986   33.70870    0.10809
      H    H3452    11.10102   34.73985    0.84144
      O    O3453     2.52970   25.25516    2.59484
      H    H3454     2.34999   24.35773    2.87512
      H    H3455     2.12771   25.80234    3.26954
      O    O3456    11.36955   27.45674    0.49607
      H    H3457    11.74604   26.58393    0.38344
      H    H3458    11.27150   27.79261   -0.39488
      O    O3459     5.50005   25.82931   -4.04218
      H    H3460     5.60673   26.72968   -3.73531
      H    H3461     4.58929   25.78110   -4.33272
      O    O3462    15.15197   24.95179   -2.57109
      H    H3463    15.97293   24.46144   -2.52854
      H    H3464    15.18537   25.54155   -1.81791
      O    O3465     3.14837   27.75121    1.20308
      H    H3466     3.82938   28.01504    1.82182
      H    H3467     2.83318   26.91129    1.53688
      O    O3468     7.34083   28.79794    0.29034
      H    H3469     7.84865   29.29604    0.93084
      H    H3470     7.87215   28.02146    0.11427
      O    O3471    19.44192   26.96846    3.99327
      H    H3472    18.73714   27.35663    3.47478
      H    H3473    19.70771   27.66349    4.59536
      O    O3474     5.62444   23.43780    4.55668
      H    H3475     5.62628   23.95504    3.75127
      H    H3476     4.79487   22.96082    4.53367
      O    O3477    12.01155   33.54973   -3.94433
      H    H3478    11.39327   34.01467   -4.50806
      H    H3479    12.52387   34.24248   -3.52738
      O    O3480     6.87472   33.07732    2.73403
      H    H3481     6.54166   33.70421    3.37613
      H    H3482     7.05139   33.60350    1.95419
      O    O3483    15.38811   26.89182    0.20166
      H    H3484    14.68367   27.18031    0.78197
      H    H3485    15.74933   27.70184   -0.15838
      O    O3486     5.30597   25.14879    2.56372
      H    H3487     5.64765   25.99300    2.26911
      H    H3488     4.36755   25.29717    2.68026
      O    O3489     6.08663   35.04540    4.54895
      H    H3490     6.70403   35.72050    4.26739
      H    H3491     5.22594   35.45419    4.45770
      O    O3492     1.37987   34.23538   -6.57037
      H    H3493     1.00266   34.72409   -7.30188
      H    H3494     1.63717   34.90791   -5.93972
      O    O3495    17.00439   36.50934    2.46441
      H    H3496    16.32074   37.17925    2.45608
      H    H3497    17.54382   36.70740    1.69890
      O    O3498    18.45681   26.33730    0.59258
      H    H3499    17.50930   26.37120    0.72413
      H    H3500    18.78180   27.15120    0.97752
      O    O3501     8.98876   22.63702   -1.11182
      H    H3502     9.29626   22.08171   -1.82827
      H    H3503     8.05883   22.77147   -1.29452
      O    O3504    14.54027   38.35375    1.17893
      H    H3505    14.55298   37.94998    0.31115
      H    H3506    13.98779   39.12848    1.07507
      O    O3507    15.83481   35.07537   -3.73206
      H    H3508    15.72444   34.13281   -3.60711
      H    H3509    15.83163   35.43694   -2.84578
      O    O3510    13.93881   33.25673    2.50719
      H    H3511    14.35569   33.04275    1.67253
      H    H3512    14.66279   33.51401    3.07805
      O    O3513    11.37684   30.70190   -4.37581
      H    H3514    10.44976   30.63564   -4.14696
      H    H3515    11.52932   31.63992   -4.49028
      O    O3516    11.36374   26.97360   -7.37909
      H    H3517    10.42411   27.13500   -7.29384
      H    H3518    11.68207   27.69217   -7.92549
      O    O3519    17.88502   31.65546    2.59881
      H    H3520    17.05688   31.72477    2.12383
      H    H3521    18.48007   32.24089    2.13040
      O    O3522    15.40656   32.26393   -3.87228
      H    H3523    14.78781   31.92589   -4.51965
      H    H3524    15.38901   31.61991   -3.16436
      O    O3525    14.84922   28.44239    3.54430
      H    H3526    14.43634   29.26776    3.79830
      H    H3527    14.11682   27.85689    3.35194
      O    O3528     6.98250   31.22838   -1.59383
      H    H3529     6.57820   30.51610   -2.08924
      H    H3530     7.06881   30.88370   -0.70503
      O    O3531     7.45067   34.91513    0.57009
      H    H3532     7.15350   34.30968   -0.10913
      H    H3533     8.40065   34.95287    0.45902
      O    O3534     5.69536   28.00270    2.18607
      H    H3535     6.24682   28.11223    1.41140
      H    H3536     6.20971   28.37646    2.90159
      O    O3537    15.53923   38.48832    4.23240
      H    H3538    15.06229   39.29554    4.03966
      H    H3539    14.85541   37.83615    4.38502
      O    O3540     6.54251   34.65330    7.22087
      H    H3541     5.64537   34.87730    7.46821
      H    H3542     6.56780   34.77680    6.27201
      O    O3543    13.58303   31.50262   -6.86501
      H    H3544    14.02236   30.66486   -7.01122
      H    H3545    14.29588   32.13556   -6.77859
      O    O3546     5.36963   31.52464    5.79660
      H    H3547     5.23041   32.39692    6.16534
      H    H3548     4.48777   31.18192    5.65140
      O    O3549    11.69257   36.44222   -2.89688
      H    H3550    12.13216   37.18466   -3.31134
      H    H3551    11.63126   36.68488   -1.97299
      O    O3552     7.16767   37.46681    8.00512
      H    H3553     7.13921   37.87110    7.13796
      H    H3554     7.00417   36.53784    7.84228
      O    O3555    17.16475   22.75690   -8.55090
      H    H3556    16.85201   22.84958   -7.65100
      H    H3557    17.92600   23.33500   -8.60116
      O    O3558     3.68296   30.12288   -4.09317
      H    H3559     3.56272   30.84909   -4.70504
      H    H3560     3.37305   29.35317   -4.57038
      O    O3561    19.11915   38.24952    9.30154
      H    H3562    19.59512   38.72780    9.98044
      H    H3563    19.73987   38.18126    8.57609
      O    O3564     1.32150   33.29439    1.71370
      H    H3565     1.39954   33.42927    0.76927
      H    H3566     1.93567   32.58598    1.90651
      O    O3567     2.56626   34.99441   -1.87569
      H    H3568     2.15907   35.13587   -2.73033
      H    H3569     3.45756   34.71043   -2.07857
      O    O3570    18.52248   35.44080    6.46154
      H    H3571    18.64878   35.20199    5.54326
      H    H3572    18.56461   34.60925    6.93375
      O    O3573    12.38415   39.14360    5.03102
      H    H3574    12.89862   39.05440    5.83326
      H    H3575    11.54106   39.48957    5.32381
      O    O3576    14.35959   39.42913   -5.54058
      H    H3577    14.19970   39.13943   -4.64240
      H    H3578    14.19426   38.65315   -6.07606
      O    O3579     6.83843   39.20899   -3.76342
      H    H3580     6.66268   38.29254   -3.97664
      H    H3581     5.98400   39.56772   -3.52364
      O    O3582    14.06220   36.93789   -6.98078
      H    H3583    13.36872   36.93562   -7.64055
      H    H3584    14.80449   36.51382   -7.41136
      O    O3585    13.62720   38.56416   -2.90593
      H    H3586    14.08289   37.78310   -2.59207
      H    H3587    13.96645   39.27484   -2.36181
      O    O3588    18.37488   27.49405    7.42651
      H    H3589    17.75930   28.00201    6.89806
      H    H3590    18.05452   26.59388    7.36911
      O    O3591     1.37745   34.33581    4.25314
      H    H3592     1.54056   33.86634    3.43508
      H    H3593     1.84270   33.82816    4.91803
      O    O3594     6.14933   23.46638   -0.71080
      H    H3595     5.70614   24.24734   -1.04235
      H    H3596     6.70783   23.78937   -0.00371
      O    O3597    10.43631   26.33324    4.89273
      H    H3598     9.97425   26.54154    5.70472
      H    H3599    10.03412   25.51917    4.58980
      O    O3600    15.43676   27.55413    6.02240
      H    H3601    14.58612   27.25471    6.34330
      H    H3602    15.27694   27.79833    5.11078
      O    O3603    12.53173   29.05431    8.12228
      H    H3604    12.85707   28.22068    7.78250
      H    H3605    13.31976   29.57716    8.27011
      O    O3606     9.26521   23.08745   -5.83022
      H    H3607     8.64063   23.08344   -5.10489
      H    H3608     9.17822   22.22055   -6.22662
      O    O3609     8.18692   24.01112    1.14816
      H    H3610     8.48415   24.91740    1.06736
      H    H3611     8.73547   23.52299    0.53412
      O    O3612     5.94075   28.58974   -2.98268
      H    H3613     5.71484   28.37346   -2.07801
      H    H3614     5.16000   29.02259   -3.32808
      O    O3615    13.17053   28.59608   -4.38361
      H    H3616    12.57142   29.31966   -4.56725
      H    H3617    13.71849   28.53376   -5.16597
      O    O3618     8.38067   29.48830    7.68335
      H    H3619     8.28503   28.54777    7.53339
      H    H3620     9.22387   29.70981    7.28816
      O    O3621    11.77701   27.23243   -2.35328
      H    H3622    12.16997   27.54965   -3.16641
      H    H3623    12.13870   26.35362   -2.23883
      O    O3624     3.51173   25.89967    5.83673
      H    H3625     3.11806   26.74719    6.04401
      H    H3626     2.82357   25.26230    6.02759
      O    O3627    10.08623   25.98316    8.90640
      H    H3628     9.39606   25.79038    9.54101
      H    H3629    10.82946   26.26663    9.43883
      O    O3630     0.81343   23.82251   -0.13026
      H    H3631     0.52474   24.39280    0.58223
      H    H3632     1.55801   23.34296    0.23286
      O    O3633    12.36253   29.82301    1.74179
      H    H3634    11.63064   30.33169    2.09080
      H    H3635    11.96496   29.00600    1.44067
      O    O3636     8.80027   26.49843    0.14704
      H    H3637     8.80387   26.05742   -0.70250
      H    H3638     9.69538   26.82016    0.25423
      O    O3639     4.65050   26.38108   -0.89354
      H    H3640     4.31051   26.85860   -0.13683
      H    H3641     3.88824   25.92759   -1.25343
      O    O3642     8.86228   27.49963   -6.86228
      H    H3643     8.98356   27.45828   -5.91370
      H    H3644     8.47713   28.36205   -7.01761
      O    O3645    12.82512   25.27637    1.15409
      H    H3646    12.84239   25.72724    1.99827
      H    H3647    12.57668   24.37694    1.36743
      O    O3648     7.87443   29.80975   -7.46395
      H    H3649     7.30612   29.36157   -8.09036
      H    H3650     8.58333   30.16903   -7.99744
      O    O3651    16.25219   22.68959    6.99273
      H    H3652    16.57677   21.95856    7.51852
      H    H3653    16.28784   22.37096    6.09083
      O    O3654     2.95135   33.71095    6.41272
      H    H3655     2.56683   33.07032    7.01102
      H    H3656     3.26257   34.41456    6.98220
      O    O3657     9.10106   30.55860    1.89358
      H    H3658     9.46808   30.08446    2.63972
      H    H3659     8.91157   31.43276    2.23442
      O    O3660     1.96511   25.30297   -1.97707
      H    H3661     1.67980   24.93854   -1.13921
      H    H3662     1.90300   24.57102   -2.59075
      O    O3663     6.89100   29.59947    4.21201
      H    H3664     6.58671   30.47867    4.43704
      H    H3665     7.84565   29.65945    4.24775
      O    O3666     5.41918   33.80557   -5.19131
      H    H3667     4.64541   33.26533   -5.35144
      H    H3668     6.14864   33.28623   -5.52953
      O    O3669    16.17798   32.80210    0.60133
      H    H3670    16.89789   33.29763    0.21094
      H    H3671    15.97616   32.12389   -0.04328
      O    O3672    11.63897   24.19590   -5.25573
      H    H3673    10.82543   23.69722   -5.33120
      H    H3674    11.44517   25.03572   -5.67210
      O    O3675    11.55986   32.87301    6.48823
      H    H3676    11.49359   31.95258    6.23399
      H    H3677    10.93037   32.97055    7.20269
      O    O3678    14.35381   28.56786   -6.95952
      H    H3679    15.24177   28.87959   -7.13438
      H    H3680    14.32432   27.69509   -7.35146
      O    O3681     5.46292   33.47361   -1.55343
      H    H3682     5.98079   32.67043   -1.60774
      H    H3683     5.01132   33.41152   -0.71175
      O    O3684    10.34987   34.74023   -6.28070
      H    H3685    10.69144   35.48446   -6.77637
      H    H3686     9.52114   35.05335   -5.91822
      O    O3687     2.94737   30.43974    5.35914
      H    H3688     2.58887   31.10513    5.94648
      H    H3689     2.65283   29.60810    5.73040
      O    O3690     6.14869   30.89817    8.24310
      H    H3691     5.84870   31.04388    7.34588
      H    H3692     6.91981   30.33870    8.15044
      O    O3693    11.49153   35.69507    6.23861
      H    H3694    11.50598   34.76316    6.02050
      H    H3695    10.78404   35.78104    6.87759
      O    O3696    16.62524   29.87905   -7.49153
      H    H3697    16.54161   30.31047   -8.34189
      H    H3698    17.34466   30.33888   -7.05885
      O    O3699    17.70265   32.33580    5.58547
      H    H3700    16.97747   32.92868    5.38841
      H    H3701    18.23020   32.32815    4.78680
      O    O3702    17.65396   36.73327   -4.76332
      H    H3703    17.01158   36.07884   -4.48894
      H    H3704    17.26703   37.13878   -5.53925
      O    O3705    13.23261   34.06182   -0.91615
      H    H3706    13.58499   33.46463   -1.57601
      H    H3707    12.34884   33.73624   -0.74532
      O    O3708     9.31894   34.82159   -3.50911
      H    H3709    10.00605   35.36851   -3.12835
      H    H3710     8.53218   35.36566   -3.47415
      O    O3711     1.45818   30.43887   -8.01740
      H    H3712     2.32766   30.72135   -7.73381
      H    H3713     0.96721   31.25246   -8.13252
      O    O3714     8.62166   31.82619   -3.89657
      H    H3715     9.07794   32.63671   -3.67055
      H    H3716     8.27048   31.50850   -3.06472
      O    O3717    10.92492   37.33682    3.33266
      H    H3718    11.56914   37.54276    4.01000
      H    H3719    11.28786   36.57566    2.87974
      O    O3720     4.52284   22.16995   -3.42432
      H    H3721     4.39430   22.16174   -2.47583
      H    H3722     3.69904   22.50826   -3.77522
      O    O3723    12.19813   35.34006    2.05040
      H    H3724    12.84035   34.63937    2.16362
      H    H3725    12.72306   36.11990    1.87009
      O    O3726    16.04370   35.62492   -8.22568
      H    H3727    15.81746   34.90796   -7.63322
      H    H3728    15.65332   35.37616   -9.06351
      O    O3729    13.97189   36.13955    5.25401
      H    H3730    14.30751   36.72622    5.93180
      H    H3731    13.05192   36.00882    5.48379
      O    O3732     1.82530   39.65161   -7.45124
      H    H3733     2.18507   40.25054   -8.10551
      H    H3734     1.68454   40.19760   -6.67773
      O    O3735     1.52223   23.92907    6.03635
      H    H3736     0.80808   24.12876    6.64161
      H    H3737     1.94173   23.15302    6.40783
      O    O3738    15.62533   33.54211   -6.56427
      H    H3739    15.33750   34.00338   -5.77648
      H    H3740    16.42054   33.08189   -6.29584
      O    O3741     1.80949   37.91709    7.02300
      H    H3742     1.91860   36.97657    6.88254
      H    H3743     1.15755   38.18257    6.37438
      O    O3744     9.80075   36.18868    8.42282
      H    H3745     9.48044   35.46961    8.96739
      H    H3746     9.12658   36.86419    8.49642
      O    O3747     7.84217   37.03473   -6.63387
      H    H3748     7.83318   37.76770   -7.24942
      H    H3749     6.92200   36.78788   -6.54117
      O    O3750     3.44283   32.25622   -5.88919
      H    H3751     2.83562   32.99611   -5.87966
      H    H3752     3.91776   32.34615   -6.71537
      O    O3753    13.01611   26.42130    3.78650
      H    H3754    13.38419   25.60082    4.11445
      H    H3755    12.15593   26.48149    4.20206
      O    O3756    16.38231   25.37699   -5.40475
      H    H3757    15.75363   25.48156   -6.11892
      H    H3758    15.88750   25.59667   -4.61536
      O    O3759    10.82813   37.09755   -7.97135
      H    H3760    10.92932   36.89395   -8.90115
      H    H3761     9.92830   36.84338   -7.76657
      O    O3762     8.35071   27.65559   -3.98896
      H    H3763     7.64233   28.12422   -3.54760
      H    H3764     8.63516   26.99779   -3.35444
      O    O3765     9.97631   29.07526    4.01029
      H    H3766    10.47483   29.54984    4.67548
      H    H3767    10.11860   28.15161    4.21730
      O    O3768    12.38226   24.38065   -2.54938
      H    H3769    12.25904   24.39927   -3.49843
      H    H3770    13.33071   24.42855   -2.42954
      O    O3771     9.46994   39.61618   -3.27658
      H    H3772     9.72409   39.57832   -4.19865
      H    H3773     8.52118   39.48952   -3.28376
      O    O3774     6.55422   25.96409   -6.61389
      H    H3775     7.40327   26.40111   -6.67987
      H    H3776     6.18734   26.27612   -5.78668
      O    O3777    17.18299   25.29205    4.85313
      H    H3778    16.68035   26.03259    5.19251
      H    H3779    17.99866   25.68045    4.53681
      O    O3780    15.47519   30.53537   -1.70073
      H    H3781    14.53421   30.55039   -1.52596
      H    H3782    15.78960   29.74897   -1.25470
      O    O3783     5.45336   32.21733   -8.14034
      H    H3784     6.21969   32.10547   -7.57779
      H    H3785     5.53083   31.52113   -8.79266
      O    O3786     4.14803   29.64984   -7.45705
      H    H3787     4.22839   28.70259   -7.34531
      H    H3788     5.04001   29.98053   -7.35098
      O    O3789    17.47775   37.70626   -0.02531
      H    H3790    17.60249   38.52937    0.44708
      H    H3791    18.34431   37.49533   -0.37289
      O    O3792     4.94951   39.79938   -0.35359
      H    H3793     5.68575   39.25092   -0.08274
      H    H3794     5.33360   40.66498   -0.49299
      O    O3795     1.83405   35.86673   -4.47944
      H    H3796     0.90803   36.10885   -4.48890
      H    H3797     2.29970   36.69416   -4.60097
      O    O3798     3.95533   38.98398    8.83497
      H    H3799     4.75661   39.30519    9.24851
      H    H3800     3.44052   38.62354    9.55696
      O    O3801     8.05974   38.97241   -8.53104
      H    H3802     8.85260   39.26129   -8.98286
      H    H3803     7.54017   38.54162   -9.20979
      O    O3804    12.79180   35.09197    8.78251
      H    H3805    12.18561   35.11513    8.04208
      H    H3806    12.48721   34.36027    9.31923
      O    O3807    14.22183   38.82000    7.39345
      H    H3808    15.17401   38.73580    7.34347
      H    H3809    14.07466   39.48417    8.06683
      O    O3810    17.11275   38.19942   -7.10736
      H    H3811    16.82690   37.78593   -7.92194
      H    H3812    16.91471   39.12819   -7.22731
      O    O3813     1.67511   31.47133    7.77857
      H    H3814     2.17902   30.89206    8.35019
      H    H3815     0.93586   31.75535    8.31621
      O    O3816     8.57748   34.19275   -8.66680
      H    H3817     8.47254   33.57798   -7.94066
      H    H3818     8.40990   33.66934   -9.45050
      O    O3819     8.72891   32.87843    7.31212
      H    H3820     7.96348   33.44693    7.22759
      H    H3821     8.91050   32.58605    6.41895
      O    O3822    11.81775   33.25475   -8.06260
      H    H3823    11.26876   33.70168   -7.41833
      H    H3824    12.43968   32.74968   -7.53883
      O    O3825    15.87124   34.60896    7.86962
      H    H3826    16.61219   34.94654    7.36637
      H    H3827    15.10851   34.77817    7.31660
      O    O3828     3.70742   29.61429    8.67358
      H    H3829     3.74796   29.31568    9.58210
      H    H3830     4.56197   30.01505    8.51433
      O    O3831     7.48526   32.21384   -6.16607
      H    H3832     7.90690   32.04783   -5.32293
      H    H3833     7.61035   31.40387   -6.66056
      O    O3834     5.64800   28.19350    6.64103
      H    H3835     5.11765   27.70259    6.01336
      H    H3836     6.31681   28.62192    6.10682
      O    O3837     9.99803   31.23760   -8.91836
      H    H3838    10.51859   30.52251   -9.28425
      H    H3839    10.64487   31.87619   -8.61831
      O    O3840    14.54581   32.66044    6.40515
      H    H3841    14.95991   32.81495    7.25419
      H    H3842    13.61091   32.78597    6.56772
      O    O3843    15.01803   30.00006    8.40906
      H    H3844    15.60010   29.24529    8.32111
      H    H3845    15.19420   30.53080    7.63221
      O    O3846     6.13523   25.15974    6.72076
      H    H3847     6.04092   24.54181    5.99584
      H    H3848     5.55497   25.88636    6.49375
      O    O3849     8.90138   23.71706    3.75349
      H    H3850     8.45311   23.73949    2.90805
      H    H3851     8.26790   23.31896    4.35052
      O    O3852     9.30733   32.61249    4.37474
      H    H3853     9.72614   33.45577    4.20236
      H    H3854     8.38820   32.74970    4.14542
      O    O3855    11.64372   30.34411    5.75852
      H    H3856    11.76334   29.74822    6.49801
      H    H3857    12.50312   30.38108    5.33865
      O    O3858    13.98251   30.89783    4.33477
      H    H3859    13.45603   31.42209    3.73129
      H    H3860    14.32565   31.53057    4.96575
      O    O3861     7.15807   38.91779    5.49051
      H    H3862     6.62018   39.64240    5.17138
      H    H3863     7.41147   38.44083    4.70025
      O    O3864     8.41060   26.88625    7.01610
      H    H3865     9.00057   26.57783    7.70389
      H    H3866     7.59262   26.41422    7.17209
      O    O3867    13.22994   26.50283    7.24941
      H    H3868    12.54149   25.84098    7.18441
      H    H3869    13.95054   26.05665    7.69425
      O    O3870    13.85998   23.09799   -6.69157
      H    H3871    14.14021   22.25478   -6.33563
      H    H3872    13.08656   23.33030   -6.17769
      O    O3873    10.01430   40.15291    5.74918
      H    H3874     9.94017   41.05643    6.05641
      H    H3875     9.11218   39.83410    5.72138
      O    O3876     8.39792   24.33069   -8.24685
      H    H3877     8.05012   23.65309   -8.82660
      H    H3878     8.59920   23.86964   -7.43251
      O    O3879    10.56283   39.31877   -6.62819
      H    H3880    11.45791   39.65726   -6.60631
      H    H3881    10.59459   38.59671   -7.25576
      O    O3882     4.20244   34.69147   -8.39949
      H    H3883     4.63993   35.23444   -7.74373
      H    H3884     4.68722   33.86617   -8.38985
      O    O3885     1.41702   37.48037   -0.94746
      H    H3886     1.74733   36.61248   -1.17960
      H    H3887     1.84612   37.68623   -0.11697
      O    O3888     6.01322   35.81127   -3.28726
      H    H3889     5.71277   35.68777   -2.38687
      H    H3890     5.90697   34.95213   -3.69569
      O    O3891     1.90605   38.34743    1.79070
      H    H3892     1.46914   38.52751    2.62312
      H    H3893     2.47381   39.10489    1.64887
      O    O3894    17.54226   37.84913    6.07843
      H    H3895    16.94246   37.90839    5.33482
      H    H3896    17.67165   36.90963    6.20812
      O    O3897    18.78241   35.59091   -8.58460
      H    H3898    17.95170   35.65858   -8.11387
      H    H3899    18.95959   36.48133   -8.88791
      O    O3900    18.23805   32.33566   -6.08118
      H    H3901    18.99995   32.90533   -5.97521
      H    H3902    18.25349   31.76838   -5.31035
      O    O3903     1.73849   30.85946   -1.85041
      H    H3904     1.08337   30.59062   -2.49444
      H    H3905     2.57628   30.74990   -2.30021
      O    O3906    19.24405   33.19067   -1.23698
      H    H3907    19.61493   32.40740   -1.64339
      H    H3908    19.88424   33.87958   -1.41525
      O    O3909    16.22743   34.57433    4.17605
      H    H3910    15.41341   35.00405    4.43863
      H    H3911    16.63485   35.18617    3.56295
      O    O3912    18.28997   32.62910   -8.92392
      H    H3913    18.56486   33.53699   -9.05200
      H    H3914    18.10105   32.56535   -7.98773
      O    O3915    14.68753   25.65358   -7.62856
      H    H3916    15.10602   25.46668   -8.46890
      H    H3917    14.38114   24.80149   -7.31827
      O    O3918    18.18651   30.56600   -3.93098
      H    H3919    17.81087   29.79879   -4.36285
      H    H3920    17.45682   30.94827   -3.44349
      O    O3921     2.77608   31.24471    2.68992
      H    H3922     3.14339   31.15745    3.56953
      H    H3923     2.20716   30.48137    2.59061
      O    O3924    17.57647   29.71315    5.70297
      H    H3925    17.34508   29.48443    4.80277
      H    H3926    17.83692   30.63311    5.65746
      O    O3927     2.32768   28.15562    6.59577
      H    H3928     1.43329   28.12230    6.93514
      H    H3929     2.86744   28.35430    7.36089
      O    O3930    16.01527   24.93879    8.48094
      H    H3931    16.89229   24.94713    8.86434
      H    H3932    16.02736   24.20188    7.87018
      O    O3933     0.95230   28.06935   -5.90788
      H    H3934     0.04870   28.33237   -6.08271
      H    H3935     1.43636   28.34047   -6.68788
      O    O3936    17.46160   28.79175   -0.63026
      H    H3937    17.98535   28.29801   -1.26124
      H    H3938    18.04754   28.92678    0.11450
      O    O3939    17.64057   28.87573    2.89170
      H    H3940    16.69084   28.84209    3.00620
      H    H3941    17.82187   29.78575    2.65667
      O    O3942     3.49502   27.12590   -7.99844
      H    H3943     4.20419   26.70422   -8.48371
      H    H3944     2.77901   27.19343   -8.63010
      O    O3945    16.95160   28.04908   -4.69102
      H    H3946    17.44751   27.81617   -3.90613
      H    H3947    16.75321   27.21027   -5.10725
      O    O3948     2.83165   22.43045    0.94409
      H    H3949     3.47927   21.88019    0.50360
      H    H3950     3.25184   22.68477    1.76567
      O    O3951    18.38031   26.68518   -2.15725
      H    H3952    18.27024   26.53078   -1.21902
      H    H3953    19.14107   26.15727   -2.39971
      O    O3954    16.72689   22.62459    4.30105
      H    H3955    17.36411   23.23800    4.66697
      H    H3956    16.87438   22.66066    3.35597
      O    O3957    19.26934   24.51597   -8.91663
      H    H3958    20.19427   24.38409   -9.12481
      H    H3959    19.24692   24.59525   -7.96299
      O    O3960    19.34319   25.28704   -6.29096
      H    H3961    18.54834   25.22155   -5.76167
      H    H3962    19.54752   26.22210   -6.30243
      O    O3963    16.28503   39.32619   -2.29712
      H    H3964    16.88094   39.00465   -2.97368
      H    H3965    16.54285   38.85337   -1.50580
      O    O3966     2.58485   22.58602    3.68662
      H    H3967     2.23633   23.04240    4.45244
      H    H3968     2.25362   21.69173    3.76886
      O    O3969     4.19129   35.75798    7.85194
      H    H3970     4.14825   35.38727    8.73338
      H    H3971     4.32239   36.69574    7.99212
      O    O3972     7.89189   37.31394    3.45291
      H    H3973     7.65103   37.58140    2.56596
      H    H3974     8.83216   37.48451    3.50800
      O    O3975    10.09733   23.77721    7.20856
      H    H3976    10.03622   24.36939    7.95810
      H    H3977    11.03737   23.66981    7.06359
      O    O3978    12.73479   23.43422    6.84779
      H    H3979    13.34883   23.75214    6.18590
      H    H3980    13.27975   22.94907    7.46738
      O    O3981    19.15231   39.33338    4.25397
      H    H3982    18.65814   39.73027    3.53669
      H    H3983    18.54364   38.70830    4.64770
      O    O3984     3.25692   22.11364    6.96170
      H    H3985     3.80522   21.93245    6.19831
      H    H3986     3.32245   21.32305    7.49733
      O    O3987     4.03009   38.70421    4.97172
      H    H3988     3.43612   38.57268    5.71072
      H    H3989     4.02248   37.86802    4.50593
      O    O3990    13.47559   21.99743    3.17472
      H    H3991    12.60158   22.33094    2.97201
      H    H3992    13.36667   21.52475    3.99991
      O    O3993    14.38279   24.20452    4.55889
      H    H3994    14.05413   23.38969    4.17906
      H    H3995    15.33102   24.16150    4.43546
      O    O3996    16.83625   39.97572    1.53265
      H    H3997    16.37655   40.72730    1.15845
      H    H3998    16.20750   39.25637    1.47413
      O    O3999     3.66132   36.07004    3.92252
      H    H4000     2.93472   35.45057    3.85512
      H    H4001     3.72223   36.46411    3.05233
      O    O4002     7.26583   38.28454    0.70746
      H    H4003     7.78233   37.67328    0.18229
      H    H4004     7.91556   38.78742    1.19856
      O    O4005    10.00538   39.17539    1.53436
      H    H4006    10.29316   38.92082    0.65766
      H    H4007    10.51770   38.62313    2.12492
      O    O4008    11.22308   22.91441    2.11401
      H    H4009    10.44026   23.38896    2.39369
      H    H4010    10.92937   22.00990    2.00533
      O    O4011    15.77518   23.61672    0.15892
      H    H4012    16.21599   23.56123   -0.68892
      H    H4013    15.50594   24.53252    0.22994
      O    O4014    17.63904   23.24825   -1.83020
      H    H4015    17.57788   22.30437   -1.97710
      H    H4016    18.41824   23.35626   -1.28485
      O    O4017     1.94432   39.38748   -2.86780
      H    H4018     1.77652   38.75455   -2.16961
      H    H4019     1.07777   39.59342   -3.21838
      O    O4020     2.56712   23.21916   -5.36462
      H    H4021     3.32505   23.33205   -5.93821
      H    H4022     2.10483   24.05608   -5.41027
      O    O4023     9.10850   25.33309   -2.37439
      H    H4024     8.29595   24.95878   -2.71480
      H    H4025     9.61266   24.57760   -2.07227
      O    O4026    13.61100   21.99733   -1.13608
      H    H4027    14.21393   22.56935   -0.66123
      H    H4028    12.87030   22.56128   -1.35869
      O    O4029    16.75446   22.39949   -5.86205
      H    H4030    16.94952   23.29783   -5.59531
      H    H4031    15.96744   22.16820   -5.36876
      O    O4032     3.55059   38.08081   -5.42279
      H    H4033     3.02535   38.46161   -6.12659
      H    H4034     3.47504   38.70588   -4.70182
      O    O4035     4.93963   23.74557   -6.82442
      H    H4036     5.46891   22.95855   -6.95363
      H    H4037     5.57246   24.42469   -6.59087
      O    O4038     7.13342   23.48308   -3.76988
      H    H4039     6.50369   22.78181   -3.60287
      H    H4040     6.59393   24.24349   -3.98657
      O    O4041    10.07261   40.09700    8.90118
      H    H4042    10.99934   39.86143    8.94478
      H    H4043    10.05765   40.92420    8.41978
      O    O4044    18.30712   39.63956   -4.10140
      H    H4045    18.48234   38.95333   -4.74530
      H    H4046    17.60927   40.16427   -4.49373
      O    O4047     7.25897   22.76148    8.66537
      H    H4048     6.97740   23.26484    7.90145
      H    H4049     7.64094   21.96365    8.29958
      O    O4050     6.14988   40.02904   -6.54786
      H    H4051     6.88176   39.74497   -7.09548
      H    H4052     6.40925   39.79037   -5.65793
      O    O4053     5.31136   36.14552   -6.54323
      H    H4054     4.68225   36.61403   -5.99465
      H    H4055     5.42614   35.30044   -6.10861
      O    O4056    13.86052   22.17684    9.24341
      H    H4057    13.74706   22.49630   10.13857
      H    H4058    14.67749   22.57809    8.94714
      O    O4059    16.64037   39.32399    8.72528
      H    H4060    17.43290   38.82891    8.51788
      H    H4061    16.93368   40.00300    9.33284
      O    O4062    31.54068   30.19608   -1.61876
      H    H4063    31.46009   29.28154   -1.88959
      H    H4064    31.12713   30.69279   -2.32479
      O    O4065    29.67249   31.97399    0.26216
      H    H4066    28.89670   31.49403    0.55202
      H    H4067    30.32378   31.29455    0.08778
      O    O4068    23.68907   32.28597    1.13974
      H    H4069    22.85756   32.03084    1.53939
      H    H4070    24.29717   32.35704    1.87553
      O    O4071    33.69323   36.38000   -0.95792
      H    H4072    33.23138   35.60873   -0.62921
      H    H4073    34.50579   36.40661   -0.45268
      O    O4074    23.66920   36.31998    1.33554
      H    H4075    23.97200   35.42975    1.15656
      H    H4076    24.41356   36.87700    1.10777
      O    O4077    22.09827   27.24616   -5.07602
      H    H4078    21.20994   27.58775   -5.17803
      H    H4079    22.38238   27.04619   -5.96794
      O    O4080    20.06157   29.84672    0.80795
      H    H4081    20.63318   29.07894    0.80831
      H    H4082    20.06172   30.14560   -0.10139
      O    O4083    29.91956   38.66581   -1.33752
      H    H4084    29.30071   39.12156   -1.90808
      H    H4085    30.77474   38.82095   -1.73855
      O    O4086    29.11339   34.64970    0.26918
      H    H4087    29.04421   33.70870    0.10809
      H    H4088    29.87537   34.73985    0.84144
      O    O4089    21.30405   25.25516    2.59484
      H    H4090    21.12434   24.35773    2.87512
      H    H4091    20.90206   25.80234    3.26954
      O    O4092    30.14390   27.45674    0.49607
      H    H4093    30.52039   26.58393    0.38344
      H    H4094    30.04585   27.79261   -0.39488
      O    O4095    24.27440   25.82931   -4.04218
      H    H4096    24.38108   26.72968   -3.73531
      H    H4097    23.36364   25.78110   -4.33272
      O    O4098    33.92632   24.95179   -2.57109
      H    H4099    34.74728   24.46144   -2.52854
      H    H4100    33.95972   25.54155   -1.81791
      O    O4101    21.92272   27.75121    1.20308
      H    H4102    22.60373   28.01504    1.82182
      H    H4103    21.60753   26.91129    1.53688
      O    O4104    26.11518   28.79794    0.29034
      H    H4105    26.62300   29.29604    0.93084
      H    H4106    26.64650   28.02146    0.11427
      O    O4107    38.21627   26.96846    3.99327
      H    H4108    37.51149   27.35663    3.47478
      H    H4109    38.48206   27.66349    4.59536
      O    O4110    24.39879   23.43780    4.55668
      H    H4111    24.40063   23.95504    3.75127
      H    H4112    23.56922   22.96082    4.53367
      O    O4113    30.78590   33.54973   -3.94433
      H    H4114    30.16762   34.01467   -4.50806
      H    H4115    31.29822   34.24248   -3.52738
      O    O4116    25.64907   33.07732    2.73403
      H    H4117    25.31601   33.70421    3.37613
      H    H4118    25.82574   33.60350    1.95419
      O    O4119    34.16246   26.89182    0.20166
      H    H4120    33.45802   27.18031    0.78197
      H    H4121    34.52368   27.70184   -0.15838
      O    O4122    24.08032   25.14879    2.56372
      H    H4123    24.42200   25.99300    2.26911
      H    H4124    23.14190   25.29717    2.68026
      O    O4125    24.86098   35.04540    4.54895
      H    H4126    25.47838   35.72050    4.26739
      H    H4127    24.00029   35.45419    4.45770
      O    O4128    20.15422   34.23538   -6.57037
      H    H4129    19.77701   34.72409   -7.30188
      H    H4130    20.41152   34.90791   -5.93972
      O    O4131    35.77874   36.50934    2.46441
      H    H4132    35.09509   37.17925    2.45608
      H    H4133    36.31817   36.70740    1.69890
      O    O4134    37.23116   26.33730    0.59258
      H    H4135    36.28365   26.37120    0.72413
      H    H4136    37.55615   27.15120    0.97752
      O    O4137    27.76311   22.63702   -1.11182
      H    H4138    28.07061   22.08171   -1.82827
      H    H4139    26.83318   22.77147   -1.29452
      O    O4140    33.31462   38.35375    1.17893
      H    H4141    33.32733   37.94998    0.31115
      H    H4142    32.76214   39.12848    1.07507
      O    O4143    34.60916   35.07537   -3.73206
      H    H4144    34.49879   34.13281   -3.60711
      H    H4145    34.60598   35.43694   -2.84578
      O    O4146    32.71316   33.25673    2.50719
      H    H4147    33.13004   33.04275    1.67253
      H    H4148    33.43714   33.51401    3.07805
      O    O4149    30.15119   30.70190   -4.37581
      H    H4150    29.22411   30.63564   -4.14696
      H    H4151    30.30367   31.63992   -4.49028
      O    O4152    30.13809   26.97360   -7.37909
      H    H4153    29.19846   27.13500   -7.29384
      H    H4154    30.45642   27.69217   -7.92549
      O    O4155    36.65937   31.65546    2.59881
      H    H4156    35.83123   31.72477    2.12383
      H    H4157    37.25442   32.24089    2.13040
      O    O4158    34.18091   32.26393   -3.87228
      H    H4159    33.56216   31.92589   -4.51965
      H    H4160    34.16336   31.61991   -3.16436
      O    O4161    33.62357   28.44239    3.54430
      H    H4162    33.21069   29.26776    3.79830
      H    H4163    32.89117   27.85689    3.35194
      O    O4164    25.75685   31.22838   -1.59383
      H    H4165    25.35255   30.51610   -2.08924
      H    H4166    25.84316   30.88370   -0.70503
      O    O4167    26.22502   34.91513    0.57009
      H    H4168    25.92785   34.30968   -0.10913
      H    H4169    27.17500   34.95287    0.45902
      O    O4170    24.46971   28.00270    2.18607
      H    H4171    25.02117   28.11223    1.41140
      H    H4172    24.98406   28.37646    2.90159
      O    O4173    34.31358   38.48832    4.23240
      H    H4174    33.83664   39.29554    4.03966
      H    H4175    33.62976   37.83615    4.38502
      O    O4176    25.31686   34.65330    7.22087
      H    H4177    24.41972   34.87730    7.46821
      H    H4178    25.34215   34.77680    6.27201
      O    O4179    32.35738   31.50262   -6.86501
      H    H4180    32.79671   30.66486   -7.01122
      H    H4181    33.07023   32.13556   -6.77859
      O    O4182    24.14398   31.52464    5.79660
      H    H4183    24.00476   32.39692    6.16534
      H    H4184    23.26212   31.18192    5.65140
      O    O4185    30.46692   36.44222   -2.89688
      H    H4186    30.90651   37.18466   -3.31134
      H    H4187    30.40561   36.68488   -1.97299
      O    O4188    25.94202   37.46681    8.00512
      H    H4189    25.91356   37.87110    7.13796
      H    H4190    25.77852   36.53784    7.84228
      O    O4191    35.93910   22.75690   -8.55090
      H    H4192    35.62636   22.84958   -7.65100
      H    H4193    36.70035   23.33500   -8.60116
      O    O4194    22.45731   30.12288   -4.09317
      H    H4195    22.33707   30.84909   -4.70504
      H    H4196    22.14740   29.35317   -4.57038
      O    O4197    37.89350   38.24952    9.30154
      H    H4198    38.36947   38.72780    9.98044
      H    H4199    38.51422   38.18126    8.57609
      O    O4200    20.09585   33.29439    1.71370
      H    H4201    20.17389   33.42927    0.76927
      H    H4202    20.71002   32.58598    1.90651
      O    O4203    21.34061   34.99441   -1.87569
      H    H4204    20.93342   35.13587   -2.73033
      H    H4205    22.23191   34.71043   -2.07857
      O    O4206    37.29683   35.44080    6.46154
      H    H4207    37.42313   35.20199    5.54326
      H    H4208    37.33896   34.60925    6.93375
      O    O4209    31.15850   39.14360    5.03102
      H    H4210    31.67297   39.05440    5.83326
      H    H4211    30.31541   39.48957    5.32381
      O    O4212    33.13394   39.42913   -5.54058
      H    H4213    32.97405   39.13943   -4.64240
      H    H4214    32.96861   38.65315   -6.07606
      O    O4215    25.61278   39.20899   -3.76342
      H    H4216    25.43703   38.29254   -3.97664
      H    H4217    24.75835   39.56772   -3.52364
      O    O4218    32.83655   36.93789   -6.98078
      H    H4219    32.14307   36.93562   -7.64055
      H    H4220    33.57884   36.51382   -7.41136
      O    O4221    32.40155   38.56416   -2.90593
      H    H4222    32.85724   37.78310   -2.59207
      H    H4223    32.74080   39.27484   -2.36181
      O    O4224    37.14923   27.49405    7.42651
      H    H4225    36.53365   28.00201    6.89806
      H    H4226    36.82887   26.59388    7.36911
      O    O4227    20.15180   34.33581    4.25314
      H    H4228    20.31491   33.86634    3.43508
      H    H4229    20.61705   33.82816    4.91803
      O    O4230    24.92368   23.46638   -0.71080
      H    H4231    24.48049   24.24734   -1.04235
      H    H4232    25.48218   23.78937   -0.00371
      O    O4233    29.21066   26.33324    4.89273
      H    H4234    28.74860   26.54154    5.70472
      H    H4235    28.80847   25.51917    4.58980
      O    O4236    34.21111   27.55413    6.02240
      H    H4237    33.36047   27.25471    6.34330
      H    H4238    34.05129   27.79833    5.11078
      O    O4239    31.30608   29.05431    8.12228
      H    H4240    31.63142   28.22068    7.78250
      H    H4241    32.09411   29.57716    8.27011
      O    O4242    28.03956   23.08745   -5.83022
      H    H4243    27.41498   23.08344   -5.10489
      H    H4244    27.95257   22.22055   -6.22662
      O    O4245    26.96127   24.01112    1.14816
      H    H4246    27.25850   24.91740    1.06736
      H    H4247    27.50982   23.52299    0.53412
      O    O4248    24.71510   28.58974   -2.98268
      H    H4249    24.48919   28.37346   -2.07801
      H    H4250    23.93435   29.02259   -3.32808
      O    O4251    31.94488   28.59608   -4.38361
      H    H4252    31.34577   29.31966   -4.56725
      H    H4253    32.49284   28.53376   -5.16597
      O    O4254    27.15502   29.48830    7.68335
      H    H4255    27.05938   28.54777    7.53339
      H    H4256    27.99822   29.70981    7.28816
      O    O4257    30.55136   27.23243   -2.35328
      H    H4258    30.94432   27.54965   -3.16641
      H    H4259    30.91305   26.35362   -2.23883
      O    O4260    22.28608   25.89967    5.83673
      H    H4261    21.89241   26.74719    6.04401
      H    H4262    21.59792   25.26230    6.02759
      O    O4263    28.86058   25.98316    8.90640
      H    H4264    28.17041   25.79038    9.54101
      H    H4265    29.60381   26.26663    9.43883
      O    O4266    19.58778   23.82251   -0.13026
      H    H4267    19.29909   24.39280    0.58223
      H    H4268    20.33236   23.34296    0.23286
      O    O4269    31.13688   29.82301    1.74179
      H    H4270    30.40499   30.33169    2.09080
      H    H4271    30.73931   29.00600    1.44067
      O    O4272    27.57462   26.49843    0.14704
      H    H4273    27.57822   26.05742   -0.70250
      H    H4274    28.46973   26.82016    0.25423
      O    O4275    23.42485   26.38108   -0.89354
      H    H4276    23.08486   26.85860   -0.13683
      H    H4277    22.66259   25.92759   -1.25343
      O    O4278    27.63663   27.49963   -6.86228
      H    H4279    27.75791   27.45828   -5.91370
      H    H4280    27.25148   28.36205   -7.01761
      O    O4281    31.59947   25.27637    1.15409
      H    H4282    31.61674   25.72724    1.99827
      H    H4283    31.35103   24.37694    1.36743
      O    O4284    26.64878   29.80975   -7.46395
      H    H4285    26.08047   29.36157   -8.09036
      H    H4286    27.35768   30.16903   -7.99744
      O    O4287    35.02654   22.68959    6.99273
      H    H4288    35.35112   21.95856    7.51852
      H    H4289    35.06219   22.37096    6.09083
      O    O4290    21.72570   33.71095    6.41272
      H    H4291    21.34118   33.07032    7.01102
      H    H4292    22.03692   34.41456    6.98220
      O    O4293    27.87541   30.55860    1.89358
      H    H4294    28.24243   30.08446    2.63972
      H    H4295    27.68592   31.43276    2.23442
      O    O4296    20.73946   25.30297   -1.97707
      H    H4297    20.45415   24.93854   -1.13921
      H    H4298    20.67735   24.57102   -2.59075
      O    O4299    25.66535   29.59947    4.21201
      H    H4300    25.36106   30.47867    4.43704
      H    H4301    26.62000   29.65945    4.24775
      O    O4302    24.19353   33.80557   -5.19131
      H    H4303    23.41976   33.26533   -5.35144
      H    H4304    24.92299   33.28623   -5.52953
      O    O4305    34.95233   32.80210    0.60133
      H    H4306    35.67224   33.29763    0.21094
      H    H4307    34.75051   32.12389   -0.04328
      O    O4308    30.41332   24.19590   -5.25573
      H    H4309    29.59978   23.69722   -5.33120
      H    H4310    30.21952   25.03572   -5.67210
      O    O4311    30.33421   32.87301    6.48823
      H    H4312    30.26794   31.95258    6.23399
      H    H4313    29.70472   32.97055    7.20269
      O    O4314    33.12816   28.56786   -6.95952
      H    H4315    34.01612   28.87959   -7.13438
      H    H4316    33.09867   27.69509   -7.35146
      O    O4317    24.23727   33.47361   -1.55343
      H    H4318    24.75514   32.67043   -1.60774
      H    H4319    23.78567   33.41152   -0.71175
      O    O4320    29.12422   34.74023   -6.28070
      H    H4321    29.46579   35.48446   -6.77637
      H    H4322    28.29549   35.05335   -5.91822
      O    O4323    21.72172   30.43974    5.35914
      H    H4324    21.36322   31.10513    5.94648
      H    H4325    21.42718   29.60810    5.73040
      O    O4326    24.92304   30.89817    8.24310
      H    H4327    24.62305   31.04388    7.34588
      H    H4328    25.69416   30.33870    8.15044
      O    O4329    30.26588   35.69507    6.23861
      H    H4330    30.28033   34.76316    6.02050
      H    H4331    29.55839   35.78104    6.87759
      O    O4332    35.39959   29.87905   -7.49153
      H    H4333    35.31596   30.31047   -8.34189
      H    H4334    36.11901   30.33888   -7.05885
      O    O4335    36.47700   32.33580    5.58547
      H    H4336    35.75182   32.92868    5.38841
      H    H4337    37.00455   32.32815    4.78680
      O    O4338    36.42831   36.73327   -4.76332
      H    H4339    35.78593   36.07884   -4.48894
      H    H4340    36.04138   37.13878   -5.53925
      O    O4341    32.00696   34.06182   -0.91615
      H    H4342    32.35934   33.46463   -1.57601
      H    H4343    31.12319   33.73624   -0.74532
      O    O4344    28.09329   34.82159   -3.50911
      H    H4345    28.78040   35.36851   -3.12835
      H    H4346    27.30653   35.36566   -3.47415
      O    O4347    20.23253   30.43887   -8.01740
      H    H4348    21.10201   30.72135   -7.73381
      H    H4349    19.74156   31.25246   -8.13252
      O    O4350    27.39601   31.82619   -3.89657
      H    H4351    27.85229   32.63671   -3.67055
      H    H4352    27.04483   31.50850   -3.06472
      O    O4353    29.69927   37.33682    3.33266
      H    H4354    30.34349   37.54276    4.01000
      H    H4355    30.06221   36.57566    2.87974
      O    O4356    23.29719   22.16995   -3.42432
      H    H4357    23.16865   22.16174   -2.47583
      H    H4358    22.47339   22.50826   -3.77522
      O    O4359    30.97248   35.34006    2.05040
      H    H4360    31.61470   34.63937    2.16362
      H    H4361    31.49741   36.11990    1.87009
      O    O4362    34.81805   35.62492   -8.22568
      H    H4363    34.59181   34.90796   -7.63322
      H    H4364    34.42767   35.37616   -9.06351
      O    O4365    32.74624   36.13955    5.25401
      H    H4366    33.08186   36.72622    5.93180
      H    H4367    31.82627   36.00882    5.48379
      O    O4368    20.59965   39.65161   -7.45124
      H    H4369    20.95942   40.25054   -8.10551
      H    H4370    20.45889   40.19760   -6.67773
      O    O4371    20.29658   23.92907    6.03635
      H    H4372    19.58243   24.12876    6.64161
      H    H4373    20.71608   23.15302    6.40783
      O    O4374    34.39968   33.54211   -6.56427
      H    H4375    34.11185   34.00338   -5.77648
      H    H4376    35.19489   33.08189   -6.29584
      O    O4377    20.58384   37.91709    7.02300
      H    H4378    20.69295   36.97657    6.88254
      H    H4379    19.93190   38.18257    6.37438
      O    O4380    28.57510   36.18868    8.42282
      H    H4381    28.25479   35.46961    8.96739
      H    H4382    27.90093   36.86419    8.49642
      O    O4383    26.61652   37.03473   -6.63387
      H    H4384    26.60753   37.76770   -7.24942
      H    H4385    25.69635   36.78788   -6.54117
      O    O4386    22.21718   32.25622   -5.88919
      H    H4387    21.60997   32.99611   -5.87966
      H    H4388    22.69211   32.34615   -6.71537
      O    O4389    31.79046   26.42130    3.78650
      H    H4390    32.15854   25.60082    4.11445
      H    H4391    30.93028   26.48149    4.20206
      O    O4392    35.15666   25.37699   -5.40475
      H    H4393    34.52798   25.48156   -6.11892
      H    H4394    34.66185   25.59667   -4.61536
      O    O4395    29.60248   37.09755   -7.97135
      H    H4396    29.70367   36.89395   -8.90115
      H    H4397    28.70265   36.84338   -7.76657
      O    O4398    27.12506   27.65559   -3.98896
      H    H4399    26.41668   28.12422   -3.54760
      H    H4400    27.40951   26.99779   -3.35444
      O    O4401    28.75066   29.07526    4.01029
      H    H4402    29.24918   29.54984    4.67548
      H    H4403    28.89295   28.15161    4.21730
      O    O4404    31.15661   24.38065   -2.54938
      H    H4405    31.03339   24.39927   -3.49843
      H    H4406    32.10506   24.42855   -2.42954
      O    O4407    28.24429   39.61618   -3.27658
      H    H4408    28.49844   39.57832   -4.19865
      H    H4409    27.29553   39.48952   -3.28376
      O    O4410    25.32857   25.96409   -6.61389
      H    H4411    26.17762   26.40111   -6.67987
      H    H4412    24.96169   26.27612   -5.78668
      O    O4413    35.95734   25.29205    4.85313
      H    H4414    35.45470   26.03259    5.19251
      H    H4415    36.77301   25.68045    4.53681
      O    O4416    34.24954   30.53537   -1.70073
      H    H4417    33.30856   30.55039   -1.52596
      H    H4418    34.56395   29.74897   -1.25470
      O    O4419    24.22771   32.21733   -8.14034
      H    H4420    24.99404   32.10547   -7.57779
      H    H4421    24.30518   31.52113   -8.79266
      O    O4422    22.92238   29.64984   -7.45705
      H    H4423    23.00274   28.70259   -7.34531
      H    H4424    23.81436   29.98053   -7.35098
      O    O4425    36.25210   37.70626   -0.02531
      H    H4426    36.37684   38.52937    0.44708
      H    H4427    37.11866   37.49533   -0.37289
      O    O4428    23.72386   39.79938   -0.35359
      H    H4429    24.46010   39.25092   -0.08274
      H    H4430    24.10795   40.66498   -0.49299
      O    O4431    20.60840   35.86673   -4.47944
      H    H4432    19.68238   36.10885   -4.48890
      H    H4433    21.07405   36.69416   -4.60097
      O    O4434    22.72968   38.98398    8.83497
      H    H4435    23.53096   39.30519    9.24851
      H    H4436    22.21487   38.62354    9.55696
      O    O4437    26.83409   38.97241   -8.53104
      H    H4438    27.62695   39.26129   -8.98286
      H    H4439    26.31452   38.54162   -9.20979
      O    O4440    31.56615   35.09197    8.78251
      H    H4441    30.95996   35.11513    8.04208
      H    H4442    31.26156   34.36027    9.31923
      O    O4443    32.99618   38.82000    7.39345
      H    H4444    33.94836   38.73580    7.34347
      H    H4445    32.84901   39.48417    8.06683
      O    O4446    35.88710   38.19942   -7.10736
      H    H4447    35.60125   37.78593   -7.92194
      H    H4448    35.68906   39.12819   -7.22731
      O    O4449    20.44946   31.47133    7.77857
      H    H4450    20.95337   30.89206    8.35019
      H    H4451    19.71021   31.75535    8.31621
      O    O4452    27.35183   34.19275   -8.66680
      H    H4453    27.24689   33.57798   -7.94066
      H    H4454    27.18425   33.66934   -9.45050
      O    O4455    27.50326   32.87843    7.31212
      H    H4456    26.73783   33.44693    7.22759
      H    H4457    27.68485   32.58605    6.41895
      O    O4458    30.59210   33.25475   -8.06260
      H    H4459    30.04311   33.70168   -7.41833
      H    H4460    31.21403   32.74968   -7.53883
      O    O4461    34.64559   34.60896    7.86962
      H    H4462    35.38654   34.94654    7.36637
      H    H4463    33.88286   34.77817    7.31660
      O    O4464    22.48177   29.61429    8.67358
      H    H4465    22.52231   29.31568    9.58210
      H    H4466    23.33632   30.01505    8.51433
      O    O4467    26.25961   32.21384   -6.16607
      H    H4468    26.68125   32.04783   -5.32293
      H    H4469    26.38470   31.40387   -6.66056
      O    O4470    24.42235   28.19350    6.64103
      H    H4471    23.89200   27.70259    6.01336
      H    H4472    25.09116   28.62192    6.10682
      O    O4473    28.77238   31.23760   -8.91836
      H    H4474    29.29294   30.52251   -9.28425
      H    H4475    29.41922   31.87619   -8.61831
      O    O4476    33.32016   32.66044    6.40515
      H    H4477    33.73426   32.81495    7.25419
      H    H4478    32.38526   32.78597    6.56772
      O    O4479    33.79238   30.00006    8.40906
      H    H4480    34.37445   29.24529    8.32111
      H    H4481    33.96855   30.53080    7.63221
      O    O4482    24.90958   25.15974    6.72076
      H    H4483    24.81527   24.54181    5.99584
      H    H4484    24.32932   25.88636    6.49375
      O    O4485    27.67573   23.71706    3.75349
      H    H4486    27.22746   23.73949    2.90805
      H    H4487    27.04225   23.31896    4.35052
      O    O4488    28.08168   32.61249    4.37474
      H    H4489    28.50049   33.45577    4.20236
      H    H4490    27.16255   32.74970    4.14542
      O    O4491    30.41807   30.34411    5.75852
      H    H4492    30.53769   29.74822    6.49801
      H    H4493    31.27747   30.38108    5.33865
      O    O4494    32.75686   30.89783    4.33477
      H    H4495    32.23038   31.42209    3.73129
      H    H4496    33.10000   31.53057    4.96575
      O    O4497    25.93242   38.91779    5.49051
      H    H4498    25.39453   39.64240    5.17138
      H    H4499    26.18582   38.44083    4.70025
      O    O4500    27.18495   26.88625    7.01610
      H    H4501    27.77492   26.57783    7.70389
      H    H4502    26.36697   26.41422    7.17209
      O    O4503    32.00429   26.50283    7.24941
      H    H4504    31.31584   25.84098    7.18441
      H    H4505    32.72489   26.05665    7.69425
      O    O4506    32.63433   23.09799   -6.69157
      H    H4507    32.91456   22.25478   -6.33563
      H    H4508    31.86091   23.33030   -6.17769
      O    O4509    28.78865   40.15291    5.74918
      H    H4510    28.71452   41.05643    6.05641
      H    H4511    27.88653   39.83410    5.72138
      O    O4512    27.17227   24.33069   -8.24685
      H    H4513    26.82447   23.65309   -8.82660
      H    H4514    27.37355   23.86964   -7.43251
      O    O4515    29.33718   39.31877   -6.62819
      H    H4516    30.23226   39.65726   -6.60631
      H    H4517    29.36894   38.59671   -7.25576
      O    O4518    22.97679   34.69147   -8.39949
      H    H4519    23.41428   35.23444   -7.74373
      H    H4520    23.46157   33.86617   -8.38985
      O    O4521    20.19137   37.48037   -0.94746
      H    H4522    20.52168   36.61248   -1.17960
      H    H4523    20.62047   37.68623   -0.11697
      O    O4524    24.78757   35.81127   -3.28726
      H    H4525    24.48712   35.68777   -2.38687
      H    H4526    24.68132   34.95213   -3.69569
      O    O4527    20.68040   38.34743    1.79070
      H    H4528    20.24349   38.52751    2.62312
      H    H4529    21.24816   39.10489    1.64887
      O    O4530    36.31661   37.84913    6.07843
      H    H4531    35.71681   37.90839    5.33482
      H    H4532    36.44600   36.90963    6.20812
      O    O4533    37.55676   35.59091   -8.58460
      H    H4534    36.72605   35.65858   -8.11387
      H    H4535    37.73394   36.48133   -8.88791
      O    O4536    37.01240   32.33566   -6.08118
      H    H4537    37.77430   32.90533   -5.97521
      H    H4538    37.02784   31.76838   -5.31035
      O    O4539    20.51284   30.85946   -1.85041
      H    H4540    19.85772   30.59062   -2.49444
      H    H4541    21.35063   30.74990   -2.30021
      O    O4542    38.01840   33.19067   -1.23698
      H    H4543    38.38928   32.40740   -1.64339
      H    H4544    38.65859   33.87958   -1.41525
      O    O4545    35.00178   34.57433    4.17605
      H    H4546    34.18776   35.00405    4.43863
      H    H4547    35.40920   35.18617    3.56295
      O    O4548    37.06432   32.62910   -8.92392
      H    H4549    37.33921   33.53699   -9.05200
      H    H4550    36.87540   32.56535   -7.98773
      O    O4551    33.46188   25.65358   -7.62856
      H    H4552    33.88037   25.46668   -8.46890
      H    H4553    33.15549   24.80149   -7.31827
      O    O4554    36.96086   30.56600   -3.93098
      H    H4555    36.58522   29.79879   -4.36285
      H    H4556    36.23117   30.94827   -3.44349
      O    O4557    21.55043   31.24471    2.68992
      H    H4558    21.91774   31.15745    3.56953
      H    H4559    20.98151   30.48137    2.59061
      O    O4560    36.35082   29.71315    5.70297
      H    H4561    36.11943   29.48443    4.80277
      H    H4562    36.61127   30.63311    5.65746
      O    O4563    21.10203   28.15562    6.59577
      H    H4564    20.20764   28.12230    6.93514
      H    H4565    21.64179   28.35430    7.36089
      O    O4566    34.78962   24.93879    8.48094
      H    H4567    35.66664   24.94713    8.86434
      H    H4568    34.80171   24.20188    7.87018
      O    O4569    19.72665   28.06935   -5.90788
      H    H4570    18.82305   28.33237   -6.08271
      H    H4571    20.21071   28.34047   -6.68788
      O    O4572    36.23595   28.79175   -0.63026
      H    H4573    36.75970   28.29801   -1.26124
      H    H4574    36.82189   28.92678    0.11450
      O    O4575    36.41492   28.87573    2.89170
      H    H4576    35.46519   28.84209    3.00620
      H    H4577    36.59622   29.78575    2.65667
      O    O4578    22.26937   27.12590   -7.99844
      H    H4579    22.97854   26.70422   -8.48371
      H    H4580    21.55336   27.19343   -8.63010
      O    O4581    35.72595   28.04908   -4.69102
      H    H4582    36.22186   27.81617   -3.90613
      H    H4583    35.52756   27.21027   -5.10725
      O    O4584    21.60600   22.43045    0.94409
      H    H4585    22.25362   21.88019    0.50360
      H    H4586    22.02619   22.68477    1.76567
      O    O4587    37.15466   26.68518   -2.15725
      H    H4588    37.04459   26.53078   -1.21902
      H    H4589    37.91542   26.15727   -2.39971
      O    O4590    35.50124   22.62459    4.30105
      H    H4591    36.13846   23.23800    4.66697
      H    H4592    35.64873   22.66066    3.35597
      O    O4593    38.04369   24.51597   -8.91663
      H    H4594    38.96862   24.38409   -9.12481
      H    H4595    38.02127   24.59525   -7.96299
      O    O4596    38.11754   25.28704   -6.29096
      H    H4597    37.32269   25.22155   -5.76167
      H    H4598    38.32187   26.22210   -6.30243
      O    O4599    35.05938   39.32619   -2.29712
      H    H4600    35.65529   39.00465   -2.97368
      H    H4601    35.31720   38.85337   -1.50580
      O    O4602    21.35920   22.58602    3.68662
      H    H4603    21.01068   23.04240    4.45244
      H    H4604    21.02797   21.69173    3.76886
      O    O4605    22.96564   35.75798    7.85194
      H    H4606    22.92260   35.38727    8.73338
      H    H4607    23.09674   36.69574    7.99212
      O    O4608    26.66624   37.31394    3.45291
      H    H4609    26.42538   37.58140    2.56596
      H    H4610    27.60651   37.48451    3.50800
      O    O4611    28.87168   23.77721    7.20856
      H    H4612    28.81057   24.36939    7.95810
      H    H4613    29.81172   23.66981    7.06359
      O    O4614    31.50914   23.43422    6.84779
      H    H4615    32.12318   23.75214    6.18590
      H    H4616    32.05410   22.94907    7.46738
      O    O4617    37.92666   39.33338    4.25397
      H    H4618    37.43249   39.73027    3.53669
      H    H4619    37.31799   38.70830    4.64770
      O    O4620    22.80444   38.70421    4.97172
      H    H4621    22.21047   38.57268    5.71072
      H    H4622    22.79683   37.86802    4.50593
      O    O4623    32.24994   21.99743    3.17472
      H    H4624    31.37593   22.33094    2.97201
      H    H4625    32.14102   21.52475    3.99991
      O    O4626    33.15714   24.20452    4.55889
      H    H4627    32.82848   23.38969    4.17906
      H    H4628    34.10537   24.16150    4.43546
      O    O4629    35.61060   39.97572    1.53265
      H    H4630    35.15090   40.72730    1.15845
      H    H4631    34.98185   39.25637    1.47413
      O    O4632    22.43567   36.07004    3.92252
      H    H4633    21.70907   35.45057    3.85512
      H    H4634    22.49658   36.46411    3.05233
      O    O4635    26.04018   38.28454    0.70746
      H    H4636    26.55668   37.67328    0.18229
      H    H4637    26.68991   38.78742    1.19856
      O    O4638    28.77973   39.17539    1.53436
      H    H4639    29.06751   38.92082    0.65766
      H    H4640    29.29205   38.62313    2.12492
      O    O4641    29.99743   22.91441    2.11401
      H    H4642    29.21461   23.38896    2.39369
      H    H4643    29.70372   22.00990    2.00533
      O    O4644    34.54953   23.61672    0.15892
      H    H4645    34.99034   23.56123   -0.68892
      H    H4646    34.28029   24.53252    0.22994
      O    O4647    36.41339   23.24825   -1.83020
      H    H4648    36.35223   22.30437   -1.97710
      H    H4649    37.19259   23.35626   -1.28485
      O    O4650    20.71867   39.38748   -2.86780
      H    H4651    20.55087   38.75455   -2.16961
      H    H4652    19.85212   39.59342   -3.21838
      O    O4653    21.34147   23.21916   -5.36462
      H    H4654    22.09940   23.33205   -5.93821
      H    H4655    20.87918   24.05608   -5.41027
      O    O4656    27.88285   25.33309   -2.37439
      H    H4657    27.07030   24.95878   -2.71480
      H    H4658    28.38701   24.57760   -2.07227
      O    O4659    32.38535   21.99733   -1.13608
      H    H4660    32.98828   22.56935   -0.66123
      H    H4661    31.64465   22.56128   -1.35869
      O    O4662    35.52881   22.39949   -5.86205
      H    H4663    35.72387   23.29783   -5.59531
      H    H4664    34.74179   22.16820   -5.36876
      O    O4665    22.32494   38.08081   -5.42279
      H    H4666    21.79970   38.46161   -6.12659
      H    H4667    22.24939   38.70588   -4.70182
      O    O4668    23.71398   23.74557   -6.82442
      H    H4669    24.24326   22.95855   -6.95363
      H    H4670    24.34681   24.42469   -6.59087
      O    O4671    25.90777   23.48308   -3.76988
      H    H4672    25.27804   22.78181   -3.60287
      H    H4673    25.36828   24.24349   -3.98657
      O    O4674    28.84696   40.09700    8.90118
      H    H4675    29.77369   39.86143    8.94478
      H    H4676    28.83200   40.92420    8.41978
      O    O4677    37.08147   39.63956   -4.10140
      H    H4678    37.25669   38.95333   -4.74530
      H    H4679    36.38362   40.16427   -4.49373
      O    O4680    26.03332   22.76148    8.66537
      H    H4681    25.75175   23.26484    7.90145
      H    H4682    26.41529   21.96365    8.29958
      O    O4683    24.92423   40.02904   -6.54786
      H    H4684    25.65611   39.74497   -7.09548
      H    H4685    25.18360   39.79037   -5.65793
      O    O4686    24.08571   36.14552   -6.54323
      H    H4687    23.45660   36.61403   -5.99465
      H    H4688    24.20049   35.30044   -6.10861
      O    O4689    32.63487   22.17684    9.24341
      H    H4690    32.52141   22.49630   10.13857
      H    H4691    33.45184   22.57809    8.94714
      O    O4692    35.41472   39.32399    8.72528
      H    H4693    36.20725   38.82891    8.51788
      H    H4694    35.70803   40.00300    9.33284
      O    O4695    -6.00802   -7.35262   17.15559
      H    H4696    -6.08861   -8.26716   16.88476
      H    H4697    -6.42157   -6.85591   16.44956
      O    O4698    -7.87621   -5.57471   19.03651
      H    H4699    -8.65200   -6.05467   19.32637
      H    H4700    -7.22492   -6.25415   18.86213
      O    O4701    -3.85547   -1.16870   17.81643
      H    H4702    -4.31732   -1.93997   18.14514
      H    H4703    -3.04291   -1.14209   18.32167
      O    O4704    -7.62914    1.11711   17.43683
      H    H4705    -8.24799    1.57286   16.86627
      H    H4706    -6.77396    1.27225   17.03580
      O    O4707    -8.43531   -2.89900   19.04353
      H    H4708    -8.50449   -3.84000   18.88244
      H    H4709    -7.67333   -2.80885   19.61579
      O    O4710    -6.76280   -3.99897   14.83002
      H    H4711    -7.38108   -3.53403   14.26629
      H    H4712    -6.25048   -3.30622   15.24697
      O    O4713    -1.76996   -1.03936   21.23876
      H    H4714    -2.45361   -0.36945   21.23043
      H    H4715    -1.23053   -0.84130   20.47325
      O    O4716    -4.23408    0.80505   19.95328
      H    H4717    -4.22137    0.40128   19.08550
      H    H4718    -4.78656    1.57978   19.84942
      O    O4719    -2.93954   -2.47333   15.04229
      H    H4720    -3.04991   -3.41589   15.16724
      H    H4721    -2.94272   -2.11176   15.92857
      O    O4722    -4.83554   -4.29197   21.28154
      H    H4723    -4.41866   -4.50595   20.44688
      H    H4724    -4.11156   -4.03469   21.85240
      O    O4725    -7.39751   -6.84680   14.39854
      H    H4726    -8.32459   -6.91306   14.62739
      H    H4727    -7.24503   -5.90878   14.28407
      O    O4728    -0.88933   -5.89324   21.37316
      H    H4729    -1.71747   -5.82393   20.89818
      H    H4730    -0.29428   -5.30781   20.90475
      O    O4731    -3.36779   -5.28477   14.90207
      H    H4732    -3.98654   -5.62281   14.25470
      H    H4733    -3.38534   -5.92879   15.60999
      O    O4734    -3.92513   -9.10631   22.31865
      H    H4735    -4.33801   -8.28094   22.57265
      H    H4736    -4.65753   -9.69181   22.12629
      O    O4737    -3.23512    0.93962   23.00675
      H    H4738    -3.71206    1.74684   22.81401
      H    H4739    -3.91894    0.28745   23.15937
      O    O4740    -5.19132   -6.04608   11.90934
      H    H4741    -4.75199   -6.88384   11.76313
      H    H4742    -4.47847   -5.41314   11.99576
      O    O4743    -7.08178   -1.10648   15.87747
      H    H4744    -6.64219   -0.36404   15.46301
      H    H4745    -7.14309   -0.86382   16.80136
      O    O4746     0.34480    0.70082   28.07589
      H    H4747     0.82077    1.17910   28.75479
      H    H4748     0.96552    0.63256   27.35044
      O    O4749    -0.25187   -2.10790   25.23589
      H    H4750    -0.12557   -2.34671   24.31761
      H    H4751    -0.20974   -2.93945   25.70810
      O    O4752    -6.39020    1.59490   23.80537
      H    H4753    -5.87573    1.50570   24.60761
      H    H4754    -7.23329    1.94087   24.09816
      O    O4755    -4.41476    1.88043   13.23377
      H    H4756    -4.57465    1.59073   14.13195
      H    H4757    -4.58009    1.10445   12.69829
      O    O4758    -4.71215   -0.61081   11.79357
      H    H4759    -5.40563   -0.61308   11.13380
      H    H4760    -3.96986   -1.03488   11.36299
      O    O4761    -5.14715    1.01546   15.86842
      H    H4762    -4.69146    0.23440   16.18228
      H    H4763    -4.80790    1.72614   16.41254
      O    O4764    -6.24262   -8.49439   26.89663
      H    H4765    -5.91728   -9.32802   26.55685
      H    H4766    -5.45459   -7.97154   27.04446
      O    O4767    -5.60382   -8.95262   14.39074
      H    H4768    -6.20293   -8.22904   14.20710
      H    H4769    -5.05586   -9.01494   13.60838
      O    O4770    -6.41182   -7.72569   20.51614
      H    H4771    -7.14371   -7.21701   20.86515
      H    H4772    -6.80939   -8.54270   20.21502
      O    O4773    -2.59637   -4.74660   19.37568
      H    H4774    -1.87646   -4.25107   18.98529
      H    H4775    -2.79819   -5.42481   18.73107
      O    O4776    -7.21449   -4.67569   25.26258
      H    H4777    -7.28076   -5.59612   25.00834
      H    H4778    -7.84398   -4.57815   25.97704
      O    O4779    -4.42054   -8.98084   11.81483
      H    H4780    -3.53258   -8.66911   11.63997
      H    H4781    -4.45003   -9.85361   11.42289
      O    O4782    -8.42448   -2.80847   12.49365
      H    H4783    -8.08291   -2.06424   11.99798
      H    H4784    -9.25321   -2.49535   12.85613
      O    O4785    -7.28282   -1.85363   25.01296
      H    H4786    -7.26837   -2.78554   24.79485
      H    H4787    -7.99031   -1.76766   25.65194
      O    O4788    -2.14911   -7.66965   11.28282
      H    H4789    -2.23274   -7.23823   10.43246
      H    H4790    -1.42969   -7.20982   11.71550
      O    O4791    -1.07170   -5.21290   24.35982
      H    H4792    -1.79688   -4.62002   24.16276
      H    H4793    -0.54415   -5.22055   23.56115
      O    O4794    -1.12039   -0.81543   14.01103
      H    H4795    -1.76277   -1.46986   14.28541
      H    H4796    -1.50732   -0.40992   13.23510
      O    O4797    -5.54174   -3.48688   17.85820
      H    H4798    -5.18936   -4.08407   17.19834
      H    H4799    -6.42551   -3.81246   18.02903
      O    O4800    -7.84943   -0.21188   22.10701
      H    H4801    -7.20521   -0.00594   22.78435
      H    H4802    -7.48649   -0.97304   21.65409
      O    O4803    -6.57622   -2.20864   20.82475
      H    H4804    -5.93400   -2.90933   20.93797
      H    H4805    -6.05129   -1.42880   20.64444
      O    O4806    -2.73065   -1.92378   10.54867
      H    H4807    -2.95689   -2.64074   11.14113
      H    H4808    -3.12103   -2.17254    9.71084
      O    O4809    -4.80246   -1.40915   24.02836
      H    H4810    -4.46684   -0.82248   24.70615
      H    H4811    -5.72243   -1.53988   24.25814
      O    O4812    -3.14902   -4.00659   12.21008
      H    H4813    -3.43685   -3.54532   12.99787
      H    H4814    -2.35381   -4.46681   12.47851
      O    O4815    -7.94622   -0.45115   10.80300
      H    H4816    -7.84503   -0.65475    9.87320
      H    H4817    -8.84605   -0.70532   11.00778
      O    O4818    -8.79804   -8.47344   22.78464
      H    H4819    -8.29952   -7.99886   23.44983
      H    H4820    -8.65575   -9.39709   22.99165
      O    O4821    -3.29916   -7.01333   17.07362
      H    H4822    -4.24014   -6.99831   17.24839
      H    H4823    -2.98475   -7.79973   17.51965
      O    O4824    -1.29660    0.15756   18.74904
      H    H4825    -1.17186    0.98067   19.22143
      H    H4826    -0.43004   -0.05337   18.40146
      O    O4827    -5.98255   -2.45673   27.55686
      H    H4828    -6.58874   -2.43357   26.81643
      H    H4829    -6.28714   -3.18843   28.09358
      O    O4830    -4.55252    1.27130   26.16780
      H    H4831    -3.60034    1.18710   26.11782
      H    H4832    -4.69969    1.93547   26.84118
      O    O4833    -1.66160    0.65072   11.66699
      H    H4834    -1.94745    0.23723   10.85241
      H    H4835    -1.85964    1.57949   11.54704
      O    O4836    -6.95660   -4.29395   10.71175
      H    H4837    -7.50559   -3.84702   11.35602
      H    H4838    -6.33467   -4.79902   11.23552
      O    O4839    -2.90311   -2.93974   26.64397
      H    H4840    -2.16216   -2.60216   26.14072
      H    H4841    -3.66584   -2.77053   26.09095
      O    O4842    -8.77632   -6.31110    9.85599
      H    H4843    -8.25576   -7.02619    9.49010
      H    H4844    -8.12948   -5.67251   10.15604
      O    O4845    -4.22854   -4.88826   25.17950
      H    H4846    -3.81444   -4.73375   26.02854
      H    H4847    -5.16344   -4.76273   25.34207
      O    O4848    -3.75632   -7.54864   27.18341
      H    H4849    -3.17425   -8.30341   27.09546
      H    H4850    -3.58015   -7.01790   26.40656
      O    O4851    -7.13063   -7.20459   24.53287
      H    H4852    -7.01101   -7.80048   25.27236
      H    H4853    -6.27123   -7.16762   24.11300
      O    O4854    -4.79184   -6.65087   23.10912
      H    H4855    -5.31832   -6.12661   22.50564
      H    H4856    -4.44870   -6.01813   23.74010
      O    O4857    -8.76005    2.60421   24.52353
      H    H4858    -8.83418    3.50773   24.83076
      H    H4859    -9.66217    2.28540   24.49573
      O    O4860    -8.21152    1.77007   12.14616
      H    H4861    -7.31644    2.10856   12.16804
      H    H4862    -8.17976    1.04801   11.51859
      O    O4863    -1.23209    0.30043   24.85278
      H    H4864    -1.83189    0.35969   24.10917
      H    H4865    -1.10270   -0.63907   24.98247
      O    O4866     0.00806   -1.95779   10.18975
      H    H4867    -0.82265   -1.89012   10.66048
      H    H4868     0.18524   -1.06737    9.88644
      O    O4869    -0.53630   -5.21304   12.69317
      H    H4870     0.22560   -4.64337   12.79914
      H    H4871    -0.52086   -5.78032   13.46400
      O    O4872     0.46970   -4.35803   17.53737
      H    H4873     0.84058   -5.14130   17.13096
      H    H4874     1.10989   -3.66912   17.35910
      O    O4875    -2.54692   -2.97437   22.95040
      H    H4876    -3.36094   -2.54465   23.21298
      H    H4877    -2.13950   -2.36253   22.33730
      O    O4878    -0.48438   -4.91960    9.85043
      H    H4879    -0.20949   -4.01171    9.72235
      H    H4880    -0.67330   -4.98335   10.78662
      O    O4881    -0.58784   -6.98270   14.84337
      H    H4882    -0.96348   -7.74991   14.41150
      H    H4883    -1.31753   -6.60043   15.33086
      O    O4884    -1.19788   -7.83555   24.47732
      H    H4885    -1.42927   -8.06427   23.57712
      H    H4886    -0.93743   -6.91559   24.43181
      O    O4887    -1.31275   -8.75695   18.14409
      H    H4888    -0.78900   -9.25069   17.51311
      H    H4889    -0.72681   -8.62192   18.88885
      O    O4890    -1.13378   -8.67297   21.66605
      H    H4891    -2.08351   -8.70661   21.78055
      H    H4892    -0.95248   -7.76295   21.43102
      O    O4893    -2.48932    1.77749   16.47723
      H    H4894    -1.89341    1.45595   15.80067
      H    H4895    -2.23150    1.30467   17.26855
      O    O4896     0.37796    1.78468   23.02832
      H    H4897    -0.11621    2.18157   22.31104
      H    H4898    -0.23071    1.15960   23.42205
      O    O4899    -1.93810    2.42702   20.30700
      H    H4900    -2.39780    3.17860   19.93280
      H    H4901    -2.56685    1.70767   20.24848
      O    O4902    -8.76897    1.62669   20.30871
      H    H4903    -8.48119    1.37212   19.43201
      H    H4904    -8.25665    1.07443   20.89927
      O    O4905    -8.70174    2.54830   27.67553
      H    H4906    -7.77501    2.31273   27.71913
      H    H4907    -8.71670    3.37550   27.19413
      O    O4908    -0.46723    2.09086   14.67295
      H    H4909    -0.29201    1.40463   14.02905
      H    H4910    -1.16508    2.61557   14.28062
      O    O4911    -2.13398    1.77529   27.49963
      H    H4912    -1.34145    1.28021   27.29223
      H    H4913    -1.84067    2.45430   28.10719
      O    O4914    12.76633   -7.35262   17.15559
      H    H4915    12.68574   -8.26716   16.88476
      H    H4916    12.35278   -6.85591   16.44956
      O    O4917    10.89814   -5.57471   19.03651
      H    H4918    10.12235   -6.05467   19.32637
      H    H4919    11.54943   -6.25415   18.86213
      O    O4920     4.91472   -5.26273   19.91409
      H    H4921     4.08321   -5.51786   20.31374
      H    H4922     5.52282   -5.19166   20.64988
      O    O4923    14.91888   -1.16870   17.81643
      H    H4924    14.45703   -1.93997   18.14514
      H    H4925    15.73144   -1.14209   18.32167
      O    O4926     4.89485   -1.22872   20.10989
      H    H4927     5.19765   -2.11895   19.93091
      H    H4928     5.63921   -0.67170   19.88212
      O    O4929     1.28722   -7.70198   19.58230
      H    H4930     1.85883   -8.46976   19.58266
      H    H4931     1.28737   -7.40310   18.67296
      O    O4932    11.14521    1.11711   17.43683
      H    H4933    10.52636    1.57286   16.86627
      H    H4934    12.00039    1.27225   17.03580
      O    O4935    10.33904   -2.89900   19.04353
      H    H4936    10.26986   -3.84000   18.88244
      H    H4937    11.10102   -2.80885   19.61579
      O    O4938     7.34083   -8.75076   19.06469
      H    H4939     7.84865   -8.25266   19.70519
      H    H4940     7.87215   -9.52724   18.88862
      O    O4941    12.01155   -3.99897   14.83002
      H    H4942    11.39327   -3.53403   14.26629
      H    H4943    12.52387   -3.30622   15.24697
      O    O4944     6.87472   -4.47138   21.50838
      H    H4945     6.54166   -3.84449   22.15048
      H    H4946     7.05139   -3.94520   20.72854
      O    O4947     6.08663   -2.50330   23.32330
      H    H4948     6.70403   -1.82820   23.04174
      H    H4949     5.22594   -2.09451   23.23205
      O    O4950     1.37987   -3.31332   12.20398
      H    H4951     1.00266   -2.82461   11.47247
      H    H4952     1.63717   -2.64079   12.83463
      O    O4953    17.00439   -1.03936   21.23876
      H    H4954    16.32074   -0.36945   21.23043
      H    H4955    17.54382   -0.84130   20.47325
      O    O4956    14.54027    0.80505   19.95328
      H    H4957    14.55298    0.40128   19.08550
      H    H4958    13.98779    1.57978   19.84942
      O    O4959    15.83481   -2.47333   15.04229
      H    H4960    15.72444   -3.41589   15.16724
      H    H4961    15.83163   -2.11176   15.92857
      O    O4962    13.93881   -4.29197   21.28154
      H    H4963    14.35569   -4.50595   20.44688
      H    H4964    14.66279   -4.03469   21.85240
      O    O4965    11.37684   -6.84680   14.39854
      H    H4966    10.44976   -6.91306   14.62739
      H    H4967    11.52932   -5.90878   14.28407
      O    O4968    17.88502   -5.89324   21.37316
      H    H4969    17.05688   -5.82393   20.89818
      H    H4970    18.48007   -5.30781   20.90475
      O    O4971    15.40656   -5.28477   14.90207
      H    H4972    14.78781   -5.62281   14.25470
      H    H4973    15.38901   -5.92879   15.60999
      O    O4974    14.84922   -9.10631   22.31865
      H    H4975    14.43634   -8.28094   22.57265
      H    H4976    14.11682   -9.69181   22.12629
      O    O4977     6.98250   -6.32032   17.18052
      H    H4978     6.57820   -7.03260   16.68511
      H    H4979     7.06881   -6.66500   18.06932
      O    O4980     7.45067   -2.63357   19.34444
      H    H4981     7.15350   -3.23902   18.66522
      H    H4982     8.40065   -2.59583   19.23337
      O    O4983     5.69536   -9.54600   20.96042
      H    H4984     6.24682   -9.43647   20.18575
      H    H4985     6.20971   -9.17224   21.67594
      O    O4986    15.53923    0.93962   23.00675
      H    H4987    15.06229    1.74684   22.81401
      H    H4988    14.85541    0.28745   23.15937
      O    O4989     6.54251   -2.89540   25.99522
      H    H4990     5.64537   -2.67140   26.24256
      H    H4991     6.56780   -2.77190   25.04636
      O    O4992    13.58303   -6.04608   11.90934
      H    H4993    14.02236   -6.88384   11.76313
      H    H4994    14.29588   -5.41314   11.99576
      O    O4995     5.36963   -6.02406   24.57095
      H    H4996     5.23041   -5.15178   24.93969
      H    H4997     4.48777   -6.36678   24.42575
      O    O4998    11.69257   -1.10648   15.87747
      H    H4999    12.13216   -0.36404   15.46301
      H    H5000    11.63126   -0.86382   16.80136
      O    O5001     7.16767   -0.08189   26.77947
      H    H5002     7.13921    0.32240   25.91231
      H    H5003     7.00417   -1.01086   26.61663
      O    O5004     3.68296   -7.42582   14.68118
      H    H5005     3.56272   -6.69961   14.06931
      H    H5006     3.37305   -8.19553   14.20397
      O    O5007    19.11915    0.70082   28.07589
      H    H5008    19.59512    1.17910   28.75479
      H    H5009    19.73987    0.63256   27.35044
      O    O5010     1.32150   -4.25431   20.48805
      H    H5011     1.39954   -4.11943   19.54362
      H    H5012     1.93567   -4.96272   20.68086
      O    O5013     2.56626   -2.55429   16.89866
      H    H5014     2.15907   -2.41283   16.04402
      H    H5015     3.45756   -2.83827   16.69578
      O    O5016    18.52248   -2.10790   25.23589
      H    H5017    18.64878   -2.34671   24.31761
      H    H5018    18.56461   -2.93945   25.70810
      O    O5019    12.38415    1.59490   23.80537
      H    H5020    12.89862    1.50570   24.60761
      H    H5021    11.54106    1.94087   24.09816
      O    O5022    14.35959    1.88043   13.23377
      H    H5023    14.19970    1.59073   14.13195
      H    H5024    14.19426    1.10445   12.69829
      O    O5025     6.83843    1.66029   15.01093
      H    H5026     6.66268    0.74384   14.79771
      H    H5027     5.98400    2.01902   15.25071
      O    O5028    14.06220   -0.61081   11.79357
      H    H5029    13.36872   -0.61308   11.13380
      H    H5030    14.80449   -1.03488   11.36299
      O    O5031    13.62720    1.01546   15.86842
      H    H5032    14.08289    0.23440   16.18228
      H    H5033    13.96645    1.72614   16.41254
      O    O5034     1.37745   -3.21289   23.02749
      H    H5035     1.54056   -3.68236   22.20943
      H    H5036     1.84270   -3.72054   23.69238
      O    O5037    12.53173   -8.49439   26.89663
      H    H5038    12.85707   -9.32802   26.55685
      H    H5039    13.31976   -7.97154   27.04446
      O    O5040     5.94075   -8.95896   15.79167
      H    H5041     5.71484   -9.17524   16.69634
      H    H5042     5.16000   -8.52611   15.44627
      O    O5043    13.17053   -8.95262   14.39074
      H    H5044    12.57142   -8.22904   14.20710
      H    H5045    13.71849   -9.01494   13.60838
      O    O5046     8.38067   -8.06040   26.45770
      H    H5047     8.28503   -9.00093   26.30774
      H    H5048     9.22387   -7.83889   26.06251
      O    O5049    12.36253   -7.72569   20.51614
      H    H5050    11.63064   -7.21701   20.86515
      H    H5051    11.96496   -8.54270   20.21502
      O    O5052     7.87443   -7.73895   11.31040
      H    H5053     7.30612   -8.18713   10.68399
      H    H5054     8.58333   -7.37967   10.77691
      O    O5055     2.95135   -3.83775   25.18707
      H    H5056     2.56683   -4.47838   25.78537
      H    H5057     3.26257   -3.13414   25.75655
      O    O5058     9.10106   -6.99010   20.66793
      H    H5059     9.46808   -7.46424   21.41407
      H    H5060     8.91157   -6.11594   21.00877
      O    O5061     6.89100   -7.94923   22.98636
      H    H5062     6.58671   -7.07003   23.21139
      H    H5063     7.84565   -7.88925   23.02210
      O    O5064     5.41918   -3.74313   13.58304
      H    H5065     4.64541   -4.28337   13.42291
      H    H5066     6.14864   -4.26247   13.24482
      O    O5067    16.17798   -4.74660   19.37568
      H    H5068    16.89789   -4.25107   18.98529
      H    H5069    15.97616   -5.42481   18.73107
      O    O5070    11.55986   -4.67569   25.26258
      H    H5071    11.49359   -5.59612   25.00834
      H    H5072    10.93037   -4.57815   25.97704
      O    O5073    14.35381   -8.98084   11.81483
      H    H5074    15.24177   -8.66911   11.63997
      H    H5075    14.32432   -9.85361   11.42289
      O    O5076     5.46292   -4.07509   17.22092
      H    H5077     5.98079   -4.87827   17.16661
      H    H5078     5.01132   -4.13718   18.06260
      O    O5079    10.34987   -2.80847   12.49365
      H    H5080    10.69144   -2.06424   11.99798
      H    H5081     9.52114   -2.49535   12.85613
      O    O5082     2.94737   -7.10896   24.13349
      H    H5083     2.58887   -6.44357   24.72083
      H    H5084     2.65283   -7.94060   24.50475
      O    O5085     6.14869   -6.65053   27.01745
      H    H5086     5.84870   -6.50482   26.12023
      H    H5087     6.91981   -7.21000   26.92479
      O    O5088    11.49153   -1.85363   25.01296
      H    H5089    11.50598   -2.78554   24.79485
      H    H5090    10.78404   -1.76766   25.65194
      O    O5091    16.62524   -7.66965   11.28282
      H    H5092    16.54161   -7.23823   10.43246
      H    H5093    17.34466   -7.20982   11.71550
      O    O5094    17.70265   -5.21290   24.35982
      H    H5095    16.97747   -4.62002   24.16276
      H    H5096    18.23020   -5.22055   23.56115
      O    O5097    17.65396   -0.81543   14.01103
      H    H5098    17.01158   -1.46986   14.28541
      H    H5099    17.26703   -0.40992   13.23510
      O    O5100    13.23261   -3.48688   17.85820
      H    H5101    13.58499   -4.08407   17.19834
      H    H5102    12.34884   -3.81246   18.02903
      O    O5103     9.31894   -2.72711   15.26524
      H    H5104    10.00605   -2.18019   15.64600
      H    H5105     8.53218   -2.18304   15.30020
      O    O5106     1.45818   -7.10983   10.75695
      H    H5107     2.32766   -6.82735   11.04054
      H    H5108     0.96721   -6.29624   10.64183
      O    O5109     8.62166   -5.72251   14.87778
      H    H5110     9.07794   -4.91199   15.10380
      H    H5111     8.27048   -6.04020   15.70963
      O    O5112    10.92492   -0.21188   22.10701
      H    H5113    11.56914   -0.00594   22.78435
      H    H5114    11.28786   -0.97304   21.65409
      O    O5115    12.19813   -2.20864   20.82475
      H    H5116    12.84035   -2.90933   20.93797
      H    H5117    12.72306   -1.42880   20.64444
      O    O5118    16.04370   -1.92378   10.54867
      H    H5119    15.81746   -2.64074   11.14113
      H    H5120    15.65332   -2.17254    9.71084
      O    O5121    13.97189   -1.40915   24.02836
      H    H5122    14.30751   -0.82248   24.70615
      H    H5123    13.05192   -1.53988   24.25814
      O    O5124     1.82530    2.10291   11.32311
      H    H5125     2.18507    2.70184   10.66884
      H    H5126     1.68454    2.64890   12.09662
      O    O5127    15.62533   -4.00659   12.21008
      H    H5128    15.33750   -3.54532   12.99787
      H    H5129    16.42054   -4.46681   12.47851
      O    O5130     1.80949    0.36839   25.79735
      H    H5131     1.91860   -0.57213   25.65689
      H    H5132     1.15755    0.63387   25.14873
      O    O5133     9.80075   -1.36002   27.19717
      H    H5134     9.48044   -2.07909   27.74174
      H    H5135     9.12658   -0.68451   27.27077
      O    O5136     7.84217   -0.51397   12.14048
      H    H5137     7.83318    0.21900   11.52493
      H    H5138     6.92200   -0.76082   12.23318
      O    O5139     3.44283   -5.29248   12.88516
      H    H5140     2.83562   -4.55259   12.89469
      H    H5141     3.91776   -5.20255   12.05898
      O    O5142    10.82813   -0.45115   10.80300
      H    H5143    10.92932   -0.65475    9.87320
      H    H5144     9.92830   -0.70532   11.00778
      O    O5145     9.97631   -8.47344   22.78464
      H    H5146    10.47483   -7.99886   23.44983
      H    H5147    10.11860   -9.39709   22.99165
      O    O5148     9.46994    2.06748   15.49777
      H    H5149     9.72409    2.02962   14.57570
      H    H5150     8.52118    1.94082   15.49059
      O    O5151    15.47519   -7.01333   17.07362
      H    H5152    14.53421   -6.99831   17.24839
      H    H5153    15.78960   -7.79973   17.51965
      O    O5154     5.45336   -5.33137   10.63401
      H    H5155     6.21969   -5.44323   11.19656
      H    H5156     5.53083   -6.02757    9.98169
      O    O5157     4.14803   -7.89886   11.31730
      H    H5158     4.22839   -8.84611   11.42904
      H    H5159     5.04001   -7.56817   11.42337
      O    O5160    17.47775    0.15756   18.74904
      H    H5161    17.60249    0.98067   19.22143
      H    H5162    18.34431   -0.05337   18.40146
      O    O5163     4.94951    2.25068   18.42076
      H    H5164     5.68575    1.70222   18.69161
      H    H5165     5.33360    3.11628   18.28136
      O    O5166     1.83405   -1.68197   14.29491
      H    H5167     0.90803   -1.43985   14.28545
      H    H5168     2.29970   -0.85454   14.17338
      O    O5169     3.95533    1.43528   27.60932
      H    H5170     4.75661    1.75649   28.02286
      H    H5171     3.44052    1.07484   28.33131
      O    O5172     8.05974    1.42371   10.24331
      H    H5173     8.85260    1.71259    9.79149
      H    H5174     7.54017    0.99292    9.56456
      O    O5175    12.79180   -2.45673   27.55686
      H    H5176    12.18561   -2.43357   26.81643
      H    H5177    12.48721   -3.18843   28.09358
      O    O5178    14.22183    1.27130   26.16780
      H    H5179    15.17401    1.18710   26.11782
      H    H5180    14.07466    1.93547   26.84118
      O    O5181    17.11275    0.65072   11.66699
      H    H5182    16.82690    0.23723   10.85241
      H    H5183    16.91471    1.57949   11.54704
      O    O5184     1.67511   -6.07737   26.55292
      H    H5185     2.17902   -6.65664   27.12454
      H    H5186     0.93586   -5.79335   27.09056
      O    O5187     8.57748   -3.35595   10.10755
      H    H5188     8.47254   -3.97072   10.83369
      H    H5189     8.40990   -3.87936    9.32385
      O    O5190     8.72891   -4.67027   26.08647
      H    H5191     7.96348   -4.10177   26.00194
      H    H5192     8.91050   -4.96265   25.19330
      O    O5193    11.81775   -4.29395   10.71175
      H    H5194    11.26876   -3.84702   11.35602
      H    H5195    12.43968   -4.79902   11.23552
      O    O5196    15.87124   -2.93974   26.64397
      H    H5197    16.61219   -2.60216   26.14072
      H    H5198    15.10851   -2.77053   26.09095
      O    O5199     3.70742   -7.93441   27.44793
      H    H5200     3.74796   -8.23302   28.35645
      H    H5201     4.56197   -7.53365   27.28868
      O    O5202     7.48526   -5.33486   12.60828
      H    H5203     7.90690   -5.50087   13.45142
      H    H5204     7.61035   -6.14483   12.11379
      O    O5205     5.64800   -9.35520   25.41538
      H    H5206     5.11765   -9.84611   24.78771
      H    H5207     6.31681   -8.92678   24.88117
      O    O5208     9.99803   -6.31110    9.85599
      H    H5209    10.51859   -7.02619    9.49010
      H    H5210    10.64487   -5.67251   10.15604
      O    O5211    14.54581   -4.88826   25.17950
      H    H5212    14.95991   -4.73375   26.02854
      H    H5213    13.61091   -4.76273   25.34207
      O    O5214    15.01803   -7.54864   27.18341
      H    H5215    15.60010   -8.30341   27.09546
      H    H5216    15.19420   -7.01790   26.40656
      O    O5217     9.30733   -4.93621   23.14909
      H    H5218     9.72614   -4.09293   22.97671
      H    H5219     8.38820   -4.79900   22.91977
      O    O5220    11.64372   -7.20459   24.53287
      H    H5221    11.76334   -7.80048   25.27236
      H    H5222    12.50312   -7.16762   24.11300
      O    O5223    13.98251   -6.65087   23.10912
      H    H5224    13.45603   -6.12661   22.50564
      H    H5225    14.32565   -6.01813   23.74010
      O    O5226     7.15807    1.36909   24.26486
      H    H5227     6.62018    2.09370   23.94573
      H    H5228     7.41147    0.89213   23.47460
      O    O5229    10.01430    2.60421   24.52353
      H    H5230     9.94017    3.50773   24.83076
      H    H5231     9.11218    2.28540   24.49573
      O    O5232    10.56283    1.77007   12.14616
      H    H5233    11.45791    2.10856   12.16804
      H    H5234    10.59459    1.04801   11.51859
      O    O5235     4.20244   -2.85723   10.37486
      H    H5236     4.63993   -2.31426   11.03062
      H    H5237     4.68722   -3.68253   10.38450
      O    O5238     1.41702   -0.06833   17.82689
      H    H5239     1.74733   -0.93622   17.59475
      H    H5240     1.84612    0.13753   18.65738
      O    O5241     6.01322   -1.73743   15.48709
      H    H5242     5.71277   -1.86093   16.38748
      H    H5243     5.90697   -2.59657   15.07866
      O    O5244     1.90605    0.79873   20.56505
      H    H5245     1.46914    0.97881   21.39747
      H    H5246     2.47381    1.55619   20.42322
      O    O5247    17.54226    0.30043   24.85278
      H    H5248    16.94246    0.35969   24.10917
      H    H5249    17.67165   -0.63907   24.98247
      O    O5250    18.78241   -1.95779   10.18975
      H    H5251    17.95170   -1.89012   10.66048
      H    H5252    18.95959   -1.06737    9.88644
      O    O5253    18.23805   -5.21304   12.69317
      H    H5254    18.99995   -4.64337   12.79914
      H    H5255    18.25349   -5.78032   13.46400
      O    O5256     1.73849   -6.68924   16.92394
      H    H5257     1.08337   -6.95808   16.27991
      H    H5258     2.57628   -6.79880   16.47414
      O    O5259    19.24405   -4.35803   17.53737
      H    H5260    19.61493   -5.14130   17.13096
      H    H5261    19.88424   -3.66912   17.35910
      O    O5262    16.22743   -2.97437   22.95040
      H    H5263    15.41341   -2.54465   23.21298
      H    H5264    16.63485   -2.36253   22.33730
      O    O5265    18.28997   -4.91960    9.85043
      H    H5266    18.56486   -4.01171    9.72235
      H    H5267    18.10105   -4.98335   10.78662
      O    O5268    18.18651   -6.98270   14.84337
      H    H5269    17.81087   -7.74991   14.41150
      H    H5270    17.45682   -6.60043   15.33086
      O    O5271     2.77608   -6.30399   21.46427
      H    H5272     3.14339   -6.39125   22.34388
      H    H5273     2.20716   -7.06733   21.36496
      O    O5274    17.57647   -7.83555   24.47732
      H    H5275    17.34508   -8.06427   23.57712
      H    H5276    17.83692   -6.91559   24.43181
      O    O5277     2.32768   -9.39308   25.37012
      H    H5278     1.43329   -9.42640   25.70949
      H    H5279     2.86744   -9.19440   26.13524
      O    O5280     0.95230   -9.47935   12.86647
      H    H5281     0.04870   -9.21633   12.69164
      H    H5282     1.43636   -9.20823   12.08647
      O    O5283    17.46160   -8.75695   18.14409
      H    H5284    17.98535   -9.25069   17.51311
      H    H5285    18.04754   -8.62192   18.88885
      O    O5286    17.64057   -8.67297   21.66605
      H    H5287    16.69084   -8.70661   21.78055
      H    H5288    17.82187   -7.76295   21.43102
      O    O5289    16.28503    1.77749   16.47723
      H    H5290    16.88094    1.45595   15.80067
      H    H5291    16.54285    1.30467   17.26855
      O    O5292     4.19129   -1.79072   26.62629
      H    H5293     4.14825   -2.16143   27.50773
      H    H5294     4.32239   -0.85296   26.76647
      O    O5295     7.89189   -0.23476   22.22726
      H    H5296     7.65103    0.03270   21.34031
      H    H5297     8.83216   -0.06419   22.28235
      O    O5298    19.15231    1.78468   23.02832
      H    H5299    18.65814    2.18157   22.31104
      H    H5300    18.54364    1.15960   23.42205
      O    O5301     4.03009    1.15551   23.74607
      H    H5302     3.43612    1.02398   24.48507
      H    H5303     4.02248    0.31932   23.28028
      O    O5304    16.83625    2.42702   20.30700
      H    H5305    16.37655    3.17860   19.93280
      H    H5306    16.20750    1.70767   20.24848
      O    O5307     3.66132   -1.47866   22.69687
      H    H5308     2.93472   -2.09813   22.62947
      H    H5309     3.72223   -1.08459   21.82668
      O    O5310     7.26583    0.73584   19.48181
      H    H5311     7.78233    0.12458   18.95664
      H    H5312     7.91556    1.23872   19.97291
      O    O5313    10.00538    1.62669   20.30871
      H    H5314    10.29316    1.37212   19.43201
      H    H5315    10.51770    1.07443   20.89927
      O    O5316     1.94432    1.83878   15.90655
      H    H5317     1.77652    1.20585   16.60474
      H    H5318     1.07777    2.04472   15.55597
      O    O5319     3.55059    0.53211   13.35156
      H    H5320     3.02535    0.91291   12.64776
      H    H5321     3.47504    1.15718   14.07253
      O    O5322    10.07261    2.54830   27.67553
      H    H5323    10.99934    2.31273   27.71913
      H    H5324    10.05765    3.37550   27.19413
      O    O5325    18.30712    2.09086   14.67295
      H    H5326    18.48234    1.40463   14.02905
      H    H5327    17.60927    2.61557   14.28062
      O    O5328     6.14988    2.48034   12.22649
      H    H5329     6.88176    2.19627   11.67887
      H    H5330     6.40925    2.24167   13.11642
      O    O5331     5.31136   -1.40318   12.23112
      H    H5332     4.68225   -0.93467   12.77970
      H    H5333     5.42614   -2.24826   12.66574
      O    O5334    16.64037    1.77529   27.49963
      H    H5335    17.43290    1.28021   27.29223
      H    H5336    16.93368    2.45430   28.10719
      O    O5337    31.54068   -7.35262   17.15559
      H    H5338    31.46009   -8.26716   16.88476
      H    H5339    31.12713   -6.85591   16.44956
      O    O5340    29.67249   -5.57471   19.03651
      H    H5341    28.89670   -6.05467   19.32637
      H    H5342    30.32378   -6.25415   18.86213
      O    O5343    23.68907   -5.26273   19.91409
      H    H5344    22.85756   -5.51786   20.31374
      H    H5345    24.29717   -5.19166   20.64988
      O    O5346    33.69323   -1.16870   17.81643
      H    H5347    33.23138   -1.93997   18.14514
      H    H5348    34.50579   -1.14209   18.32167
      O    O5349    23.66920   -1.22872   20.10989
      H    H5350    23.97200   -2.11895   19.93091
      H    H5351    24.41356   -0.67170   19.88212
      O    O5352    20.06157   -7.70198   19.58230
      H    H5353    20.63318   -8.46976   19.58266
      H    H5354    20.06172   -7.40310   18.67296
      O    O5355    29.91956    1.11711   17.43683
      H    H5356    29.30071    1.57286   16.86627
      H    H5357    30.77474    1.27225   17.03580
      O    O5358    29.11339   -2.89900   19.04353
      H    H5359    29.04421   -3.84000   18.88244
      H    H5360    29.87537   -2.80885   19.61579
      O    O5361    26.11518   -8.75076   19.06469
      H    H5362    26.62300   -8.25266   19.70519
      H    H5363    26.64650   -9.52724   18.88862
      O    O5364    30.78590   -3.99897   14.83002
      H    H5365    30.16762   -3.53403   14.26629
      H    H5366    31.29822   -3.30622   15.24697
      O    O5367    25.64907   -4.47138   21.50838
      H    H5368    25.31601   -3.84449   22.15048
      H    H5369    25.82574   -3.94520   20.72854
      O    O5370    24.86098   -2.50330   23.32330
      H    H5371    25.47838   -1.82820   23.04174
      H    H5372    24.00029   -2.09451   23.23205
      O    O5373    20.15422   -3.31332   12.20398
      H    H5374    19.77701   -2.82461   11.47247
      H    H5375    20.41152   -2.64079   12.83463
      O    O5376    35.77874   -1.03936   21.23876
      H    H5377    35.09509   -0.36945   21.23043
      H    H5378    36.31817   -0.84130   20.47325
      O    O5379    33.31462    0.80505   19.95328
      H    H5380    33.32733    0.40128   19.08550
      H    H5381    32.76214    1.57978   19.84942
      O    O5382    34.60916   -2.47333   15.04229
      H    H5383    34.49879   -3.41589   15.16724
      H    H5384    34.60598   -2.11176   15.92857
      O    O5385    32.71316   -4.29197   21.28154
      H    H5386    33.13004   -4.50595   20.44688
      H    H5387    33.43714   -4.03469   21.85240
      O    O5388    30.15119   -6.84680   14.39854
      H    H5389    29.22411   -6.91306   14.62739
      H    H5390    30.30367   -5.90878   14.28407
      O    O5391    36.65937   -5.89324   21.37316
      H    H5392    35.83123   -5.82393   20.89818
      H    H5393    37.25442   -5.30781   20.90475
      O    O5394    34.18091   -5.28477   14.90207
      H    H5395    33.56216   -5.62281   14.25470
      H    H5396    34.16336   -5.92879   15.60999
      O    O5397    33.62357   -9.10631   22.31865
      H    H5398    33.21069   -8.28094   22.57265
      H    H5399    32.89117   -9.69181   22.12629
      O    O5400    25.75685   -6.32032   17.18052
      H    H5401    25.35255   -7.03260   16.68511
      H    H5402    25.84316   -6.66500   18.06932
      O    O5403    26.22502   -2.63357   19.34444
      H    H5404    25.92785   -3.23902   18.66522
      H    H5405    27.17500   -2.59583   19.23337
      O    O5406    24.46971   -9.54600   20.96042
      H    H5407    25.02117   -9.43647   20.18575
      H    H5408    24.98406   -9.17224   21.67594
      O    O5409    34.31358    0.93962   23.00675
      H    H5410    33.83664    1.74684   22.81401
      H    H5411    33.62976    0.28745   23.15937
      O    O5412    25.31686   -2.89540   25.99522
      H    H5413    24.41972   -2.67140   26.24256
      H    H5414    25.34215   -2.77190   25.04636
      O    O5415    32.35738   -6.04608   11.90934
      H    H5416    32.79671   -6.88384   11.76313
      H    H5417    33.07023   -5.41314   11.99576
      O    O5418    24.14398   -6.02406   24.57095
      H    H5419    24.00476   -5.15178   24.93969
      H    H5420    23.26212   -6.36678   24.42575
      O    O5421    30.46692   -1.10648   15.87747
      H    H5422    30.90651   -0.36404   15.46301
      H    H5423    30.40561   -0.86382   16.80136
      O    O5424    25.94202   -0.08189   26.77947
      H    H5425    25.91356    0.32240   25.91231
      H    H5426    25.77852   -1.01086   26.61663
      O    O5427    22.45731   -7.42582   14.68118
      H    H5428    22.33707   -6.69961   14.06931
      H    H5429    22.14740   -8.19553   14.20397
      O    O5430    37.89350    0.70082   28.07589
      H    H5431    38.36947    1.17910   28.75479
      H    H5432    38.51422    0.63256   27.35044
      O    O5433    20.09585   -4.25431   20.48805
      H    H5434    20.17389   -4.11943   19.54362
      H    H5435    20.71002   -4.96272   20.68086
      O    O5436    21.34061   -2.55429   16.89866
      H    H5437    20.93342   -2.41283   16.04402
      H    H5438    22.23191   -2.83827   16.69578
      O    O5439    37.29683   -2.10790   25.23589
      H    H5440    37.42313   -2.34671   24.31761
      H    H5441    37.33896   -2.93945   25.70810
      O    O5442    31.15850    1.59490   23.80537
      H    H5443    31.67297    1.50570   24.60761
      H    H5444    30.31541    1.94087   24.09816
      O    O5445    33.13394    1.88043   13.23377
      H    H5446    32.97405    1.59073   14.13195
      H    H5447    32.96861    1.10445   12.69829
      O    O5448    25.61278    1.66029   15.01093
      H    H5449    25.43703    0.74384   14.79771
      H    H5450    24.75835    2.01902   15.25071
      O    O5451    32.83655   -0.61081   11.79357
      H    H5452    32.14307   -0.61308   11.13380
      H    H5453    33.57884   -1.03488   11.36299
      O    O5454    32.40155    1.01546   15.86842
      H    H5455    32.85724    0.23440   16.18228
      H    H5456    32.74080    1.72614   16.41254
      O    O5457    20.15180   -3.21289   23.02749
      H    H5458    20.31491   -3.68236   22.20943
      H    H5459    20.61705   -3.72054   23.69238
      O    O5460    31.30608   -8.49439   26.89663
      H    H5461    31.63142   -9.32802   26.55685
      H    H5462    32.09411   -7.97154   27.04446
      O    O5463    24.71510   -8.95896   15.79167
      H    H5464    24.48919   -9.17524   16.69634
      H    H5465    23.93435   -8.52611   15.44627
      O    O5466    31.94488   -8.95262   14.39074
      H    H5467    31.34577   -8.22904   14.20710
      H    H5468    32.49284   -9.01494   13.60838
      O    O5469    27.15502   -8.06040   26.45770
      H    H5470    27.05938   -9.00093   26.30774
      H    H5471    27.99822   -7.83889   26.06251
      O    O5472    31.13688   -7.72569   20.51614
      H    H5473    30.40499   -7.21701   20.86515
      H    H5474    30.73931   -8.54270   20.21502
      O    O5475    26.64878   -7.73895   11.31040
      H    H5476    26.08047   -8.18713   10.68399
      H    H5477    27.35768   -7.37967   10.77691
      O    O5478    21.72570   -3.83775   25.18707
      H    H5479    21.34118   -4.47838   25.78537
      H    H5480    22.03692   -3.13414   25.75655
      O    O5481    27.87541   -6.99010   20.66793
      H    H5482    28.24243   -7.46424   21.41407
      H    H5483    27.68592   -6.11594   21.00877
      O    O5484    25.66535   -7.94923   22.98636
      H    H5485    25.36106   -7.07003   23.21139
      H    H5486    26.62000   -7.88925   23.02210
      O    O5487    24.19353   -3.74313   13.58304
      H    H5488    23.41976   -4.28337   13.42291
      H    H5489    24.92299   -4.26247   13.24482
      O    O5490    34.95233   -4.74660   19.37568
      H    H5491    35.67224   -4.25107   18.98529
      H    H5492    34.75051   -5.42481   18.73107
      O    O5493    30.33421   -4.67569   25.26258
      H    H5494    30.26794   -5.59612   25.00834
      H    H5495    29.70472   -4.57815   25.97704
      O    O5496    33.12816   -8.98084   11.81483
      H    H5497    34.01612   -8.66911   11.63997
      H    H5498    33.09867   -9.85361   11.42289
      O    O5499    24.23727   -4.07509   17.22092
      H    H5500    24.75514   -4.87827   17.16661
      H    H5501    23.78567   -4.13718   18.06260
      O    O5502    29.12422   -2.80847   12.49365
      H    H5503    29.46579   -2.06424   11.99798
      H    H5504    28.29549   -2.49535   12.85613
      O    O5505    21.72172   -7.10896   24.13349
      H    H5506    21.36322   -6.44357   24.72083
      H    H5507    21.42718   -7.94060   24.50475
      O    O5508    24.92304   -6.65053   27.01745
      H    H5509    24.62305   -6.50482   26.12023
      H    H5510    25.69416   -7.21000   26.92479
      O    O5511    30.26588   -1.85363   25.01296
      H    H5512    30.28033   -2.78554   24.79485
      H    H5513    29.55839   -1.76766   25.65194
      O    O5514    35.39959   -7.66965   11.28282
      H    H5515    35.31596   -7.23823   10.43246
      H    H5516    36.11901   -7.20982   11.71550
      O    O5517    36.47700   -5.21290   24.35982
      H    H5518    35.75182   -4.62002   24.16276
      H    H5519    37.00455   -5.22055   23.56115
      O    O5520    36.42831   -0.81543   14.01103
      H    H5521    35.78593   -1.46986   14.28541
      H    H5522    36.04138   -0.40992   13.23510
      O    O5523    32.00696   -3.48688   17.85820
      H    H5524    32.35934   -4.08407   17.19834
      H    H5525    31.12319   -3.81246   18.02903
      O    O5526    28.09329   -2.72711   15.26524
      H    H5527    28.78040   -2.18019   15.64600
      H    H5528    27.30653   -2.18304   15.30020
      O    O5529    20.23253   -7.10983   10.75695
      H    H5530    21.10201   -6.82735   11.04054
      H    H5531    19.74156   -6.29624   10.64183
      O    O5532    27.39601   -5.72251   14.87778
      H    H5533    27.85229   -4.91199   15.10380
      H    H5534    27.04483   -6.04020   15.70963
      O    O5535    29.69927   -0.21188   22.10701
      H    H5536    30.34349   -0.00594   22.78435
      H    H5537    30.06221   -0.97304   21.65409
      O    O5538    30.97248   -2.20864   20.82475
      H    H5539    31.61470   -2.90933   20.93797
      H    H5540    31.49741   -1.42880   20.64444
      O    O5541    34.81805   -1.92378   10.54867
      H    H5542    34.59181   -2.64074   11.14113
      H    H5543    34.42767   -2.17254    9.71084
      O    O5544    32.74624   -1.40915   24.02836
      H    H5545    33.08186   -0.82248   24.70615
      H    H5546    31.82627   -1.53988   24.25814
      O    O5547    20.59965    2.10291   11.32311
      H    H5548    20.95942    2.70184   10.66884
      H    H5549    20.45889    2.64890   12.09662
      O    O5550    34.39968   -4.00659   12.21008
      H    H5551    34.11185   -3.54532   12.99787
      H    H5552    35.19489   -4.46681   12.47851
      O    O5553    20.58384    0.36839   25.79735
      H    H5554    20.69295   -0.57213   25.65689
      H    H5555    19.93190    0.63387   25.14873
      O    O5556    28.57510   -1.36002   27.19717
      H    H5557    28.25479   -2.07909   27.74174
      H    H5558    27.90093   -0.68451   27.27077
      O    O5559    26.61652   -0.51397   12.14048
      H    H5560    26.60753    0.21900   11.52493
      H    H5561    25.69635   -0.76082   12.23318
      O    O5562    22.21718   -5.29248   12.88516
      H    H5563    21.60997   -4.55259   12.89469
      H    H5564    22.69211   -5.20255   12.05898
      O    O5565    29.60248   -0.45115   10.80300
      H    H5566    29.70367   -0.65475    9.87320
      H    H5567    28.70265   -0.70532   11.00778
      O    O5568    28.75066   -8.47344   22.78464
      H    H5569    29.24918   -7.99886   23.44983
      H    H5570    28.89295   -9.39709   22.99165
      O    O5571    28.24429    2.06748   15.49777
      H    H5572    28.49844    2.02962   14.57570
      H    H5573    27.29553    1.94082   15.49059
      O    O5574    34.24954   -7.01333   17.07362
      H    H5575    33.30856   -6.99831   17.24839
      H    H5576    34.56395   -7.79973   17.51965
      O    O5577    24.22771   -5.33137   10.63401
      H    H5578    24.99404   -5.44323   11.19656
      H    H5579    24.30518   -6.02757    9.98169
      O    O5580    22.92238   -7.89886   11.31730
      H    H5581    23.00274   -8.84611   11.42904
      H    H5582    23.81436   -7.56817   11.42337
      O    O5583    36.25210    0.15756   18.74904
      H    H5584    36.37684    0.98067   19.22143
      H    H5585    37.11866   -0.05337   18.40146
      O    O5586    23.72386    2.25068   18.42076
      H    H5587    24.46010    1.70222   18.69161
      H    H5588    24.10795    3.11628   18.28136
      O    O5589    20.60840   -1.68197   14.29491
      H    H5590    19.68238   -1.43985   14.28545
      H    H5591    21.07405   -0.85454   14.17338
      O    O5592    22.72968    1.43528   27.60932
      H    H5593    23.53096    1.75649   28.02286
      H    H5594    22.21487    1.07484   28.33131
      O    O5595    26.83409    1.42371   10.24331
      H    H5596    27.62695    1.71259    9.79149
      H    H5597    26.31452    0.99292    9.56456
      O    O5598    31.56615   -2.45673   27.55686
      H    H5599    30.95996   -2.43357   26.81643
      H    H5600    31.26156   -3.18843   28.09358
      O    O5601    32.99618    1.27130   26.16780
      H    H5602    33.94836    1.18710   26.11782
      H    H5603    32.84901    1.93547   26.84118
      O    O5604    35.88710    0.65072   11.66699
      H    H5605    35.60125    0.23723   10.85241
      H    H5606    35.68906    1.57949   11.54704
      O    O5607    20.44946   -6.07737   26.55292
      H    H5608    20.95337   -6.65664   27.12454
      H    H5609    19.71021   -5.79335   27.09056
      O    O5610    27.35183   -3.35595   10.10755
      H    H5611    27.24689   -3.97072   10.83369
      H    H5612    27.18425   -3.87936    9.32385
      O    O5613    27.50326   -4.67027   26.08647
      H    H5614    26.73783   -4.10177   26.00194
      H    H5615    27.68485   -4.96265   25.19330
      O    O5616    30.59210   -4.29395   10.71175
      H    H5617    30.04311   -3.84702   11.35602
      H    H5618    31.21403   -4.79902   11.23552
      O    O5619    34.64559   -2.93974   26.64397
      H    H5620    35.38654   -2.60216   26.14072
      H    H5621    33.88286   -2.77053   26.09095
      O    O5622    22.48177   -7.93441   27.44793
      H    H5623    22.52231   -8.23302   28.35645
      H    H5624    23.33632   -7.53365   27.28868
      O    O5625    26.25961   -5.33486   12.60828
      H    H5626    26.68125   -5.50087   13.45142
      H    H5627    26.38470   -6.14483   12.11379
      O    O5628    24.42235   -9.35520   25.41538
      H    H5629    23.89200   -9.84611   24.78771
      H    H5630    25.09116   -8.92678   24.88117
      O    O5631    28.77238   -6.31110    9.85599
      H    H5632    29.29294   -7.02619    9.49010
      H    H5633    29.41922   -5.67251   10.15604
      O    O5634    33.32016   -4.88826   25.17950
      H    H5635    33.73426   -4.73375   26.02854
      H    H5636    32.38526   -4.76273   25.34207
      O    O5637    33.79238   -7.54864   27.18341
      H    H5638    34.37445   -8.30341   27.09546
      H    H5639    33.96855   -7.01790   26.40656
      O    O5640    28.08168   -4.93621   23.14909
      H    H5641    28.50049   -4.09293   22.97671
      H    H5642    27.16255   -4.79900   22.91977
      O    O5643    30.41807   -7.20459   24.53287
      H    H5644    30.53769   -7.80048   25.27236
      H    H5645    31.27747   -7.16762   24.11300
      O    O5646    32.75686   -6.65087   23.10912
      H    H5647    32.23038   -6.12661   22.50564
      H    H5648    33.10000   -6.01813   23.74010
      O    O5649    25.93242    1.36909   24.26486
      H    H5650    25.39453    2.09370   23.94573
      H    H5651    26.18582    0.89213   23.47460
      O    O5652    28.78865    2.60421   24.52353
      H    H5653    28.71452    3.50773   24.83076
      H    H5654    27.88653    2.28540   24.49573
      O    O5655    29.33718    1.77007   12.14616
      H    H5656    30.23226    2.10856   12.16804
      H    H5657    29.36894    1.04801   11.51859
      O    O5658    22.97679   -2.85723   10.37486
      H    H5659    23.41428   -2.31426   11.03062
      H    H5660    23.46157   -3.68253   10.38450
      O    O5661    20.19137   -0.06833   17.82689
      H    H5662    20.52168   -0.93622   17.59475
      H    H5663    20.62047    0.13753   18.65738
      O    O5664    24.78757   -1.73743   15.48709
      H    H5665    24.48712   -1.86093   16.38748
      H    H5666    24.68132   -2.59657   15.07866
      O    O5667    20.68040    0.79873   20.56505
      H    H5668    20.24349    0.97881   21.39747
      H    H5669    21.24816    1.55619   20.42322
      O    O5670    36.31661    0.30043   24.85278
      H    H5671    35.71681    0.35969   24.10917
      H    H5672    36.44600   -0.63907   24.98247
      O    O5673    37.55676   -1.95779   10.18975
      H    H5674    36.72605   -1.89012   10.66048
      H    H5675    37.73394   -1.06737    9.88644
      O    O5676    37.01240   -5.21304   12.69317
      H    H5677    37.77430   -4.64337   12.79914
      H    H5678    37.02784   -5.78032   13.46400
      O    O5679    20.51284   -6.68924   16.92394
      H    H5680    19.85772   -6.95808   16.27991
      H    H5681    21.35063   -6.79880   16.47414
      O    O5682    38.01840   -4.35803   17.53737
      H    H5683    38.38928   -5.14130   17.13096
      H    H5684    38.65859   -3.66912   17.35910
      O    O5685    35.00178   -2.97437   22.95040
      H    H5686    34.18776   -2.54465   23.21298
      H    H5687    35.40920   -2.36253   22.33730
      O    O5688    37.06432   -4.91960    9.85043
      H    H5689    37.33921   -4.01171    9.72235
      H    H5690    36.87540   -4.98335   10.78662
      O    O5691    36.96086   -6.98270   14.84337
      H    H5692    36.58522   -7.74991   14.41150
      H    H5693    36.23117   -6.60043   15.33086
      O    O5694    21.55043   -6.30399   21.46427
      H    H5695    21.91774   -6.39125   22.34388
      H    H5696    20.98151   -7.06733   21.36496
      O    O5697    36.35082   -7.83555   24.47732
      H    H5698    36.11943   -8.06427   23.57712
      H    H5699    36.61127   -6.91559   24.43181
      O    O5700    21.10203   -9.39308   25.37012
      H    H5701    20.20764   -9.42640   25.70949
      H    H5702    21.64179   -9.19440   26.13524
      O    O5703    19.72665   -9.47935   12.86647
      H    H5704    18.82305   -9.21633   12.69164
      H    H5705    20.21071   -9.20823   12.08647
      O    O5706    36.23595   -8.75695   18.14409
      H    H5707    36.75970   -9.25069   17.51311
      H    H5708    36.82189   -8.62192   18.88885
      O    O5709    36.41492   -8.67297   21.66605
      H    H5710    35.46519   -8.70661   21.78055
      H    H5711    36.59622   -7.76295   21.43102
      O    O5712    35.05938    1.77749   16.47723
      H    H5713    35.65529    1.45595   15.80067
      H    H5714    35.31720    1.30467   17.26855
      O    O5715    22.96564   -1.79072   26.62629
      H    H5716    22.92260   -2.16143   27.50773
      H    H5717    23.09674   -0.85296   26.76647
      O    O5718    26.66624   -0.23476   22.22726
      H    H5719    26.42538    0.03270   21.34031
      H    H5720    27.60651   -0.06419   22.28235
      O    O5721    37.92666    1.78468   23.02832
      H    H5722    37.43249    2.18157   22.31104
      H    H5723    37.31799    1.15960   23.42205
      O    O5724    22.80444    1.15551   23.74607
      H    H5725    22.21047    1.02398   24.48507
      H    H5726    22.79683    0.31932   23.28028
      O    O5727    35.61060    2.42702   20.30700
      H    H5728    35.15090    3.17860   19.93280
      H    H5729    34.98185    1.70767   20.24848
      O    O5730    22.43567   -1.47866   22.69687
      H    H5731    21.70907   -2.09813   22.62947
      H    H5732    22.49658   -1.08459   21.82668
      O    O5733    26.04018    0.73584   19.48181
      H    H5734    26.55668    0.12458   18.95664
      H    H5735    26.68991    1.23872   19.97291
      O    O5736    28.77973    1.62669   20.30871
      H    H5737    29.06751    1.37212   19.43201
      H    H5738    29.29205    1.07443   20.89927
      O    O5739    20.71867    1.83878   15.90655
      H    H5740    20.55087    1.20585   16.60474
      H    H5741    19.85212    2.04472   15.55597
      O    O5742    22.32494    0.53211   13.35156
      H    H5743    21.79970    0.91291   12.64776
      H    H5744    22.24939    1.15718   14.07253
      O    O5745    28.84696    2.54830   27.67553
      H    H5746    29.77369    2.31273   27.71913
      H    H5747    28.83200    3.37550   27.19413
      O    O5748    37.08147    2.09086   14.67295
      H    H5749    37.25669    1.40463   14.02905
      H    H5750    36.38362    2.61557   14.28062
      O    O5751    24.92423    2.48034   12.22649
      H    H5752    25.65611    2.19627   11.67887
      H    H5753    25.18360    2.24167   13.11642
      O    O5754    24.08571   -1.40318   12.23112
      H    H5755    23.45660   -0.93467   12.77970
      H    H5756    24.20049   -2.24826   12.66574
      O    O5757    35.41472    1.77529   27.49963
      H    H5758    36.20725    1.28021   27.29223
      H    H5759    35.70803    2.45430   28.10719
      O    O5760    -6.00802   11.42173   17.15559
      H    H5761    -6.08861   10.50719   16.88476
      H    H5762    -6.42157   11.91844   16.44956
      O    O5763    -7.87621   13.19964   19.03651
      H    H5764    -8.65200   12.71968   19.32637
      H    H5765    -7.22492   12.52020   18.86213
      O    O5766    -3.85547   17.60565   17.81643
      H    H5767    -4.31732   16.83438   18.14514
      H    H5768    -3.04291   17.63226   18.32167
      O    O5769    -7.62914   19.89146   17.43683
      H    H5770    -8.24799   20.34721   16.86627
      H    H5771    -6.77396   20.04660   17.03580
      O    O5772    -8.43531   15.87535   19.04353
      H    H5773    -8.50449   14.93435   18.88244
      H    H5774    -7.67333   15.96550   19.61579
      O    O5775    -7.40480    8.68239   19.27042
      H    H5776    -7.02831    7.80958   19.15779
      H    H5777    -7.50285    9.01826   18.37947
      O    O5778    -3.62238    6.17744   16.20326
      H    H5779    -2.80142    5.68709   16.24581
      H    H5780    -3.58898    6.76720   16.95644
      O    O5781     0.66757    8.19411   22.76762
      H    H5782    -0.03721    8.58228   22.24913
      H    H5783     0.93336    8.88914   23.36971
      O    O5784    -6.76280   14.77538   14.83002
      H    H5785    -7.38108   15.24032   14.26629
      H    H5786    -6.25048   15.46813   15.24697
      O    O5787    -3.38624    8.11747   18.97601
      H    H5788    -4.09068    8.40596   19.55632
      H    H5789    -3.02502    8.92749   18.61597
      O    O5790    -1.76996   17.73499   21.23876
      H    H5791    -2.45361   18.40490   21.23043
      H    H5792    -1.23053   17.93305   20.47325
      O    O5793    -0.31754    7.56295   19.36693
      H    H5794    -1.26505    7.59685   19.49848
      H    H5795     0.00745    8.37685   19.75187
      O    O5796    -4.23408   19.57940   19.95328
      H    H5797    -4.22137   19.17563   19.08550
      H    H5798    -4.78656   20.35413   19.84942
      O    O5799    -2.93954   16.30102   15.04229
      H    H5800    -3.04991   15.35846   15.16724
      H    H5801    -2.94272   16.66259   15.92857
      O    O5802    -4.83554   14.48238   21.28154
      H    H5803    -4.41866   14.26840   20.44688
      H    H5804    -4.11156   14.73966   21.85240
      O    O5805    -7.39751   11.92755   14.39854
      H    H5806    -8.32459   11.86129   14.62739
      H    H5807    -7.24503   12.86557   14.28407
      O    O5808    -7.41061    8.19925   11.39526
      H    H5809    -8.35024    8.36065   11.48051
      H    H5810    -7.09228    8.91782   10.84886
      O    O5811    -0.88933   12.88111   21.37316
      H    H5812    -1.71747   12.95042   20.89818
      H    H5813    -0.29428   13.46654   20.90475
      O    O5814    -3.36779   13.48958   14.90207
      H    H5815    -3.98654   13.15154   14.25470
      H    H5816    -3.38534   12.84556   15.60999
      O    O5817    -3.92513    9.66804   22.31865
      H    H5818    -4.33801   10.49341   22.57265
      H    H5819    -4.65753    9.08254   22.12629
      O    O5820    -3.23512   19.71397   23.00675
      H    H5821    -3.71206   20.52119   22.81401
      H    H5822    -3.91894   19.06180   23.15937
      O    O5823    -5.19132   12.72827   11.90934
      H    H5824    -4.75199   11.89051   11.76313
      H    H5825    -4.47847   13.36121   11.99576
      O    O5826    -7.08178   17.66787   15.87747
      H    H5827    -6.64219   18.41031   15.46301
      H    H5828    -7.14309   17.91053   16.80136
      O    O5829    -1.60960    3.98255   10.22345
      H    H5830    -1.92234    4.07523   11.12335
      H    H5831    -0.84835    4.56065   10.17319
      O    O5832     0.34480   19.47517   28.07589
      H    H5833     0.82077   19.95345   28.75479
      H    H5834     0.96552   19.40691   27.35044
      O    O5835    -0.25187   16.66645   25.23589
      H    H5836    -0.12557   16.42764   24.31761
      H    H5837    -0.20974   15.83490   25.70810
      O    O5838    -6.39020   20.36925   23.80537
      H    H5839    -5.87573   20.28005   24.60761
      H    H5840    -7.23329   20.71522   24.09816
      O    O5841    -4.41476   20.65478   13.23377
      H    H5842    -4.57465   20.36508   14.13195
      H    H5843    -4.58009   19.87880   12.69829
      O    O5844    -4.71215   18.16354   11.79357
      H    H5845    -5.40563   18.16127   11.13380
      H    H5846    -3.96986   17.73947   11.36299
      O    O5847    -5.14715   19.78981   15.86842
      H    H5848    -4.69146   19.00875   16.18228
      H    H5849    -4.80790   20.50049   16.41254
      O    O5850    -0.39947    8.71970   26.20086
      H    H5851    -1.01505    9.22766   25.67241
      H    H5852    -0.71983    7.81953   26.14346
      O    O5853    -8.33804    7.55889   23.66708
      H    H5854    -8.80010    7.76719   24.47907
      H    H5855    -8.74023    6.74482   23.36415
      O    O5856    -3.33759    8.77978   24.79675
      H    H5857    -4.18823    8.48036   25.11765
      H    H5858    -3.49741    9.02398   23.88513
      O    O5859    -6.24262   10.27996   26.89663
      H    H5860    -5.91728    9.44633   26.55685
      H    H5861    -5.45459   10.80281   27.04446
      O    O5862    -5.60382    9.82173   14.39074
      H    H5863    -6.20293   10.54531   14.20710
      H    H5864    -5.05586    9.75941   13.60838
      O    O5865    -6.99734    8.45808   16.42107
      H    H5866    -6.60438    8.77530   15.60794
      H    H5867    -6.63565    7.57927   16.53552
      O    O5868    -8.68812    7.20881   27.68075
      H    H5869    -9.37829    7.01603   28.31536
      H    H5870    -7.94489    7.49228   28.21318
      O    O5871    -6.41182   11.04866   20.51614
      H    H5872    -7.14371   11.55734   20.86515
      H    H5873    -6.80939   10.23165   20.21502
      O    O5874    -5.94923    6.50202   19.92844
      H    H5875    -5.93196    6.95289   20.77262
      H    H5876    -6.19767    5.60259   20.14178
      O    O5877    -2.52216    3.91524   25.76708
      H    H5878    -2.19758    3.18421   26.29287
      H    H5879    -2.48651    3.59661   24.86518
      O    O5880    -2.59637   14.02775   19.37568
      H    H5881    -1.87646   14.52328   18.98529
      H    H5882    -2.79819   13.34954   18.73107
      O    O5883    -7.13538    5.42155   13.51862
      H    H5884    -7.94892    4.92287   13.44315
      H    H5885    -7.32918    6.26137   13.10225
      O    O5886    -7.21449   14.09866   25.26258
      H    H5887    -7.28076   13.17823   25.00834
      H    H5888    -7.84398   14.19620   25.97704
      O    O5889    -4.42054    9.79351   11.81483
      H    H5890    -3.53258   10.10524   11.63997
      H    H5891    -4.45003    8.92074   11.42289
      O    O5892    -8.42448   15.96588   12.49365
      H    H5893    -8.08291   16.71011   11.99798
      H    H5894    -9.25321   16.27900   12.85613
      O    O5895    -7.28282   16.92072   25.01296
      H    H5896    -7.26837   15.98881   24.79485
      H    H5897    -7.99031   17.00669   25.65194
      O    O5898    -2.14911   11.10470   11.28282
      H    H5899    -2.23274   11.53612   10.43246
      H    H5900    -1.42969   11.56453   11.71550
      O    O5901    -1.07170   13.56145   24.35982
      H    H5902    -1.79688   14.15433   24.16276
      H    H5903    -0.54415   13.55380   23.56115
      O    O5904    -1.12039   17.95892   14.01103
      H    H5905    -1.76277   17.30449   14.28541
      H    H5906    -1.50732   18.36443   13.23510
      O    O5907    -5.54174   15.28747   17.85820
      H    H5908    -5.18936   14.69028   17.19834
      H    H5909    -6.42551   14.96189   18.02903
      O    O5910    -7.84943   18.56247   22.10701
      H    H5911    -7.20521   18.76841   22.78435
      H    H5912    -7.48649   17.80131   21.65409
      O    O5913    -6.57622   16.56571   20.82475
      H    H5914    -5.93400   15.86502   20.93797
      H    H5915    -6.05129   17.34555   20.64444
      O    O5916    -2.73065   16.85057   10.54867
      H    H5917    -2.95689   16.13361   11.14113
      H    H5918    -3.12103   16.60181    9.71084
      O    O5919    -4.80246   17.36520   24.02836
      H    H5920    -4.46684   17.95187   24.70615
      H    H5921    -5.72243   17.23447   24.25814
      O    O5922    -3.14902   14.76776   12.21008
      H    H5923    -3.43685   15.22903   12.99787
      H    H5924    -2.35381   14.30754   12.47851
      O    O5925    -5.75824    7.64695   22.56085
      H    H5926    -5.39016    6.82647   22.88880
      H    H5927    -6.61842    7.70714   22.97641
      O    O5928    -2.39204    6.60264   13.36960
      H    H5929    -3.02072    6.70721   12.65543
      H    H5930    -2.88685    6.82232   14.15899
      O    O5931    -7.94622   18.32320   10.80300
      H    H5932    -7.84503   18.11960    9.87320
      H    H5933    -8.84605   18.06903   11.00778
      O    O5934    -8.79804   10.30091   22.78464
      H    H5935    -8.29952   10.77549   23.44983
      H    H5936    -8.65575    9.37726   22.99165
      O    O5937    -6.39209    5.60630   16.22497
      H    H5938    -6.51531    5.62492   15.27592
      H    H5939    -5.44364    5.65420   16.34481
      O    O5940    -1.59136    6.51770   23.62748
      H    H5941    -2.09400    7.25824   23.96686
      H    H5942    -0.77569    6.90610   23.31116
      O    O5943    -3.29916   11.76102   17.07362
      H    H5944    -4.24014   11.77604   17.24839
      H    H5945    -2.98475   10.97462   17.51965
      O    O5946    -1.29660   18.93191   18.74904
      H    H5947    -1.17186   19.75502   19.22143
      H    H5948    -0.43004   18.72098   18.40146
      O    O5949    -5.98255   16.31762   27.55686
      H    H5950    -6.58874   16.34078   26.81643
      H    H5951    -6.28714   15.58592   28.09358
      O    O5952    -4.55252   20.04565   26.16780
      H    H5953    -3.60034   19.96145   26.11782
      H    H5954    -4.69969   20.70982   26.84118
      O    O5955    -1.66160   19.42507   11.66699
      H    H5956    -1.94745   19.01158   10.85241
      H    H5957    -1.85964   20.35384   11.54704
      O    O5958    -6.95660   14.48040   10.71175
      H    H5959    -7.50559   14.92733   11.35602
      H    H5960    -6.33467   13.97533   11.23552
      O    O5961    -2.90311   15.83461   26.64397
      H    H5962    -2.16216   16.17219   26.14072
      H    H5963    -3.66584   16.00382   26.09095
      O    O5964    -8.77632   12.46325    9.85599
      H    H5965    -8.25576   11.74816    9.49010
      H    H5966    -8.12948   13.10184   10.15604
      O    O5967    -4.22854   13.88609   25.17950
      H    H5968    -3.81444   14.04060   26.02854
      H    H5969    -5.16344   14.01162   25.34207
      O    O5970    -3.75632   11.22571   27.18341
      H    H5971    -3.17425   10.47094   27.09546
      H    H5972    -3.58015   11.75645   26.40656
      O    O5973    -7.13063   11.56976   24.53287
      H    H5974    -7.01101   10.97387   25.27236
      H    H5975    -6.27123   11.60673   24.11300
      O    O5976    -4.79184   12.12348   23.10912
      H    H5977    -5.31832   12.64774   22.50564
      H    H5978    -4.44870   12.75622   23.74010
      O    O5979    -5.54441    7.72848   26.02376
      H    H5980    -6.23286    7.06663   25.95876
      H    H5981    -4.82381    7.28230   26.46860
      O    O5982    -4.91437    4.32364   12.08278
      H    H5983    -4.63414    3.48043   12.43872
      H    H5984    -5.68779    4.55595   12.59666
      O    O5985    -8.76005   21.37856   24.52353
      H    H5986    -8.83418   22.28208   24.83076
      H    H5987    -9.66217   21.05975   24.49573
      O    O5988    -8.21152   20.54442   12.14616
      H    H5989    -7.31644   20.88291   12.16804
      H    H5990    -8.17976   19.82236   11.51859
      O    O5991    -1.23209   19.07478   24.85278
      H    H5992    -1.83189   19.13404   24.10917
      H    H5993    -1.10270   18.13528   24.98247
      O    O5994     0.00806   16.81656   10.18975
      H    H5995    -0.82265   16.88423   10.66048
      H    H5996     0.18524   17.70698    9.88644
      O    O5997    -0.53630   13.56131   12.69317
      H    H5998     0.22560   14.13098   12.79914
      H    H5999    -0.52086   12.99403   13.46400
      O    O6000     0.46970   14.41632   17.53737
      H    H6001     0.84058   13.63305   17.13096
      H    H6002     1.10989   15.10523   17.35910
      O    O6003    -2.54692   15.79998   22.95040
      H    H6004    -3.36094   16.22970   23.21298
      H    H6005    -2.13950   16.41182   22.33730
      O    O6006    -0.48438   13.85475    9.85043
      H    H6007    -0.20949   14.76264    9.72235
      H    H6008    -0.67330   13.79100   10.78662
      O    O6009    -4.08682    6.87923   11.14579
      H    H6010    -3.66833    6.69233   10.30545
      H    H6011    -4.39321    6.02714   11.45608
      O    O6012    -0.58784   11.79165   14.84337
      H    H6013    -0.96348   11.02444   14.41150
      H    H6014    -1.31753   12.17392   15.33086
      O    O6015    -1.19788   10.93880   24.47732
      H    H6016    -1.42927   10.71008   23.57712
      H    H6017    -0.93743   11.85876   24.43181
      O    O6018    -2.75908    6.16444   27.25529
      H    H6019    -1.88206    6.17278   27.63869
      H    H6020    -2.74699    5.42753   26.64453
      O    O6021    -1.31275   10.01740   18.14409
      H    H6022    -0.78900    9.52366   17.51311
      H    H6023    -0.72681   10.15243   18.88885
      O    O6024    -1.13378   10.10138   21.66605
      H    H6025    -2.08351   10.06774   21.78055
      H    H6026    -0.95248   11.01140   21.43102
      O    O6027    -1.82275    9.27473   14.08333
      H    H6028    -1.32684    9.04182   14.86822
      H    H6029    -2.02114    8.43592   13.66710
      O    O6030    -0.39404    7.91083   16.61710
      H    H6031    -0.50411    7.75643   17.55533
      H    H6032     0.36672    7.38292   16.37464
      O    O6033    -2.04746    3.85024   23.07540
      H    H6034    -1.41024    4.46365   23.44132
      H    H6035    -1.89997    3.88631   22.13032
      O    O6036     0.49499    5.74162    9.85772
      H    H6037     1.41992    5.60974    9.64954
      H    H6038     0.47257    5.82090   10.81136
      O    O6039     0.56884    6.51269   12.48339
      H    H6040    -0.22601    6.44720   13.01268
      H    H6041     0.77317    7.44775   12.47192
      O    O6042    -2.48932   20.55184   16.47723
      H    H6043    -1.89341   20.23030   15.80067
      H    H6044    -2.23150   20.07902   17.26855
      O    O6045    -8.67702    5.00286   25.98291
      H    H6046    -8.73813    5.59504   26.73245
      H    H6047    -7.73698    4.89546   25.83794
      O    O6048    -6.03956    4.65987   25.62214
      H    H6049    -5.42552    4.97779   24.96025
      H    H6050    -5.49460    4.17472   26.24173
      O    O6051     0.37796   20.55903   23.02832
      H    H6052    -0.11621   20.95592   22.31104
      H    H6053    -0.23071   19.93395   23.42205
      O    O6054    -5.29876    3.22308   21.94907
      H    H6055    -6.17277    3.55659   21.74636
      H    H6056    -5.40768    2.75040   22.77426
      O    O6057    -4.39156    5.43017   23.33324
      H    H6058    -4.72022    4.61534   22.95341
      H    H6059    -3.44333    5.38715   23.20981
      O    O6060    -1.93810   21.20137   20.30700
      H    H6061    -2.39780   21.95295   19.93280
      H    H6062    -2.56685   20.48202   20.24848
      O    O6063    -8.76897   20.40104   20.30871
      H    H6064    -8.48119   20.14647   19.43201
      H    H6065    -8.25665   19.84878   20.89927
      O    O6066    -7.55127    4.14006   20.88836
      H    H6067    -8.33409    4.61461   21.16804
      H    H6068    -7.84498    3.23555   20.77968
      O    O6069    -2.99917    4.84237   18.93327
      H    H6070    -2.55836    4.78688   18.08543
      H    H6071    -3.26841    5.75817   19.00429
      O    O6072    -1.13531    4.47390   16.94415
      H    H6073    -1.19647    3.53002   16.79725
      H    H6074    -0.35611    4.58191   17.48950
      O    O6075    -5.16335    3.22298   17.63827
      H    H6076    -4.56042    3.79500   18.11312
      H    H6077    -5.90405    3.78693   17.41566
      O    O6078    -2.01989    3.62514   12.91230
      H    H6079    -1.82483    4.52348   13.17904
      H    H6080    -2.80691    3.39385   13.40559
      O    O6081    -8.70174   21.32265   27.67553
      H    H6082    -7.77501   21.08708   27.71913
      H    H6083    -8.71670   22.14985   27.19413
      O    O6084    -0.46723   20.86521   14.67295
      H    H6085    -0.29201   20.17898   14.02905
      H    H6086    -1.16508   21.38992   14.28062
      O    O6087    -4.91383    3.40249   28.01776
      H    H6088    -5.02729    3.72195   28.91292
      H    H6089    -4.09686    3.80374   27.72149
      O    O6090    -2.13398   20.54964   27.49963
      H    H6091    -1.34145   20.05456   27.29223
      H    H6092    -1.84067   21.22865   28.10719
      O    O6093     4.91472   13.51162   19.91409
      H    H6094     4.08321   13.25649   20.31374
      H    H6095     5.52282   13.58269   20.64988
      O    O6096     4.89485   17.54563   20.10989
      H    H6097     5.19765   16.65540   19.93091
      H    H6098     5.63921   18.10265   19.88212
      O    O6099     3.32392    8.47181   13.69833
      H    H6100     2.43559    8.81340   13.59632
      H    H6101     3.60803    8.27184   12.80641
      O    O6102     1.28722   11.07237   19.58230
      H    H6103     1.85883   10.30459   19.58266
      H    H6104     1.28737   11.37125   18.67296
      O    O6105     2.52970    6.48081   21.36919
      H    H6106     2.34999    5.58338   21.64947
      H    H6107     2.12771    7.02799   22.04389
      O    O6108    11.36955    8.68239   19.27042
      H    H6109    11.74604    7.80958   19.15779
      H    H6110    11.27150    9.01826   18.37947
      O    O6111     5.50005    7.05496   14.73217
      H    H6112     5.60673    7.95533   15.03904
      H    H6113     4.58929    7.00675   14.44163
      O    O6114    15.15197    6.17744   16.20326
      H    H6115    15.97293    5.68709   16.24581
      H    H6116    15.18537    6.76720   16.95644
      O    O6117     3.14837    8.97686   19.97743
      H    H6118     3.82938    9.24069   20.59617
      H    H6119     2.83318    8.13694   20.31123
      O    O6120     7.34083   10.02359   19.06469
      H    H6121     7.84865   10.52169   19.70519
      H    H6122     7.87215    9.24711   18.88862
      O    O6123    19.44192    8.19411   22.76762
      H    H6124    18.73714    8.58228   22.24913
      H    H6125    19.70771    8.88914   23.36971
      O    O6126     5.62444    4.66345   23.33103
      H    H6127     5.62628    5.18069   22.52562
      H    H6128     4.79487    4.18647   23.30802
      O    O6129     6.87472   14.30297   21.50838
      H    H6130     6.54166   14.92986   22.15048
      H    H6131     7.05139   14.82915   20.72854
      O    O6132    15.38811    8.11747   18.97601
      H    H6133    14.68367    8.40596   19.55632
      H    H6134    15.74933    8.92749   18.61597
      O    O6135     5.30597    6.37444   21.33807
      H    H6136     5.64765    7.21865   21.04346
      H    H6137     4.36755    6.52282   21.45461
      O    O6138     6.08663   16.27105   23.32330
      H    H6139     6.70403   16.94615   23.04174
      H    H6140     5.22594   16.67984   23.23205
      O    O6141     1.37987   15.46103   12.20398
      H    H6142     1.00266   15.94974   11.47247
      H    H6143     1.63717   16.13356   12.83463
      O    O6144    17.00439   17.73499   21.23876
      H    H6145    16.32074   18.40490   21.23043
      H    H6146    17.54382   17.93305   20.47325
      O    O6147     8.98876    3.86267   17.66253
      H    H6148     9.29626    3.30736   16.94608
      H    H6149     8.05883    3.99712   17.47983
      O    O6150    14.54027   19.57940   19.95328
      H    H6151    14.55298   19.17563   19.08550
      H    H6152    13.98779   20.35413   19.84942
      O    O6153    11.36374    8.19925   11.39526
      H    H6154    10.42411    8.36065   11.48051
      H    H6155    11.68207    8.91782   10.84886
      O    O6156     6.98250   12.45403   17.18052
      H    H6157     6.57820   11.74175   16.68511
      H    H6158     7.06881   12.10935   18.06932
      O    O6159     5.69536    9.22835   20.96042
      H    H6160     6.24682    9.33788   20.18575
      H    H6161     6.20971    9.60211   21.67594
      O    O6162    15.53923   19.71397   23.00675
      H    H6163    15.06229   20.52119   22.81401
      H    H6164    14.85541   19.06180   23.15937
      O    O6165     6.54251   15.87895   25.99522
      H    H6166     5.64537   16.10295   26.24256
      H    H6167     6.56780   16.00245   25.04636
      O    O6168    13.58303   12.72827   11.90934
      H    H6169    14.02236   11.89051   11.76313
      H    H6170    14.29588   13.36121   11.99576
      O    O6171     5.36963   12.75029   24.57095
      H    H6172     5.23041   13.62257   24.93969
      H    H6173     4.48777   12.40757   24.42575
      O    O6174     7.16767   18.69246   26.77947
      H    H6175     7.13921   19.09675   25.91231
      H    H6176     7.00417   17.76349   26.61663
      O    O6177    17.16475    3.98255   10.22345
      H    H6178    16.85201    4.07523   11.12335
      H    H6179    17.92600    4.56065   10.17319
      O    O6180     3.68296   11.34853   14.68118
      H    H6181     3.56272   12.07474   14.06931
      H    H6182     3.37305   10.57882   14.20397
      O    O6183    19.11915   19.47517   28.07589
      H    H6184    19.59512   19.95345   28.75479
      H    H6185    19.73987   19.40691   27.35044
      O    O6186     1.32150   14.52004   20.48805
      H    H6187     1.39954   14.65492   19.54362
      H    H6188     1.93567   13.81163   20.68086
      O    O6189     2.56626   16.22006   16.89866
      H    H6190     2.15907   16.36152   16.04402
      H    H6191     3.45756   15.93608   16.69578
      O    O6192    18.52248   16.66645   25.23589
      H    H6193    18.64878   16.42764   24.31761
      H    H6194    18.56461   15.83490   25.70810
      O    O6195    12.38415   20.36925   23.80537
      H    H6196    12.89862   20.28005   24.60761
      H    H6197    11.54106   20.71522   24.09816
      O    O6198    14.35959   20.65478   13.23377
      H    H6199    14.19970   20.36508   14.13195
      H    H6200    14.19426   19.87880   12.69829
      O    O6201     6.83843   20.43464   15.01093
      H    H6202     6.66268   19.51819   14.79771
      H    H6203     5.98400   20.79337   15.25071
      O    O6204    14.06220   18.16354   11.79357
      H    H6205    13.36872   18.16127   11.13380
      H    H6206    14.80449   17.73947   11.36299
      O    O6207    18.37488    8.71970   26.20086
      H    H6208    17.75930    9.22766   25.67241
      H    H6209    18.05452    7.81953   26.14346
      O    O6210     1.37745   15.56146   23.02749
      H    H6211     1.54056   15.09199   22.20943
      H    H6212     1.84270   15.05381   23.69238
      O    O6213     6.14933    4.69203   18.06355
      H    H6214     5.70614    5.47299   17.73200
      H    H6215     6.70783    5.01502   18.77064
      O    O6216    10.43631    7.55889   23.66708
      H    H6217     9.97425    7.76719   24.47907
      H    H6218    10.03412    6.74482   23.36415
      O    O6219    15.43676    8.77978   24.79675
      H    H6220    14.58612    8.48036   25.11765
      H    H6221    15.27694    9.02398   23.88513
      O    O6222     9.26521    4.31310   12.94413
      H    H6223     8.64063    4.30909   13.66946
      H    H6224     9.17822    3.44620   12.54773
      O    O6225     8.18692    5.23677   19.92251
      H    H6226     8.48415    6.14305   19.84171
      H    H6227     8.73547    4.74864   19.30847
      O    O6228     5.94075    9.81539   15.79167
      H    H6229     5.71484    9.59911   16.69634
      H    H6230     5.16000   10.24824   15.44627
      O    O6231    13.17053    9.82173   14.39074
      H    H6232    12.57142   10.54531   14.20710
      H    H6233    13.71849    9.75941   13.60838
      O    O6234     8.38067   10.71395   26.45770
      H    H6235     8.28503    9.77342   26.30774
      H    H6236     9.22387   10.93546   26.06251
      O    O6237     3.51173    7.12532   24.61108
      H    H6238     3.11806    7.97284   24.81836
      H    H6239     2.82357    6.48795   24.80194
      O    O6240    10.08623    7.20881   27.68075
      H    H6241     9.39606    7.01603   28.31536
      H    H6242    10.82946    7.49228   28.21318
      O    O6243     0.81343    5.04816   18.64409
      H    H6244     0.52474    5.61845   19.35658
      H    H6245     1.55801    4.56861   19.00721
      O    O6246     1.00045    8.99017    9.85436
      H    H6247     0.91792    9.93325    9.99586
      H    H6248     0.64876    8.84766    8.97559
      O    O6249     8.80027    7.72408   18.92139
      H    H6250     8.80387    7.28307   18.07185
      H    H6251     9.69538    8.04581   19.02858
      O    O6252     4.65050    7.60673   17.88081
      H    H6253     4.31051    8.08425   18.63752
      H    H6254     3.88824    7.15324   17.52092
      O    O6255     8.86228    8.72528   11.91207
      H    H6256     8.98356    8.68393   12.86065
      H    H6257     8.47713    9.58770   11.75674
      O    O6258    12.82512    6.50202   19.92844
      H    H6259    12.84239    6.95289   20.77262
      H    H6260    12.57668    5.60259   20.14178
      O    O6261     7.87443   11.03540   11.31040
      H    H6262     7.30612   10.58722   10.68399
      H    H6263     8.58333   11.39468   10.77691
      O    O6264    16.25219    3.91524   25.76708
      H    H6265    16.57677    3.18421   26.29287
      H    H6266    16.28784    3.59661   24.86518
      O    O6267     2.95135   14.93660   25.18707
      H    H6268     2.56683   14.29597   25.78537
      H    H6269     3.26257   15.64021   25.75655
      O    O6270     1.96511    6.52862   16.79728
      H    H6271     1.67980    6.16419   17.63514
      H    H6272     1.90300    5.79667   16.18360
      O    O6273     6.89100   10.82512   22.98636
      H    H6274     6.58671   11.70432   23.21139
      H    H6275     7.84565   10.88510   23.02210
      O    O6276     5.41918   15.03122   13.58304
      H    H6277     4.64541   14.49098   13.42291
      H    H6278     6.14864   14.51188   13.24482
      O    O6279    11.63897    5.42155   13.51862
      H    H6280    10.82543    4.92287   13.44315
      H    H6281    11.44517    6.26137   13.10225
      O    O6282    11.55986   14.09866   25.26258
      H    H6283    11.49359   13.17823   25.00834
      H    H6284    10.93037   14.19620   25.97704
      O    O6285    14.35381    9.79351   11.81483
      H    H6286    15.24177   10.10524   11.63997
      H    H6287    14.32432    8.92074   11.42289
      O    O6288     5.46292   14.69926   17.22092
      H    H6289     5.98079   13.89608   17.16661
      H    H6290     5.01132   14.63717   18.06260
      O    O6291    10.34987   15.96588   12.49365
      H    H6292    10.69144   16.71011   11.99798
      H    H6293     9.52114   16.27900   12.85613
      O    O6294     2.94737   11.66539   24.13349
      H    H6295     2.58887   12.33078   24.72083
      H    H6296     2.65283   10.83375   24.50475
      O    O6297     6.14869   12.12382   27.01745
      H    H6298     5.84870   12.26953   26.12023
      H    H6299     6.91981   11.56435   26.92479
      O    O6300    11.49153   16.92072   25.01296
      H    H6301    11.50598   15.98881   24.79485
      H    H6302    10.78404   17.00669   25.65194
      O    O6303    16.62524   11.10470   11.28282
      H    H6304    16.54161   11.53612   10.43246
      H    H6305    17.34466   11.56453   11.71550
      O    O6306     1.45818   11.66452   10.75695
      H    H6307     2.32766   11.94700   11.04054
      H    H6308     0.96721   12.47811   10.64183
      O    O6309     8.62166   13.05184   14.87778
      H    H6310     9.07794   13.86236   15.10380
      H    H6311     8.27048   12.73415   15.70963
      O    O6312    10.92492   18.56247   22.10701
      H    H6313    11.56914   18.76841   22.78435
      H    H6314    11.28786   17.80131   21.65409
      O    O6315     4.52284    3.39560   15.35003
      H    H6316     4.39430    3.38739   16.29852
      H    H6317     3.69904    3.73391   14.99913
      O    O6318    16.04370   16.85057   10.54867
      H    H6319    15.81746   16.13361   11.14113
      H    H6320    15.65332   16.60181    9.71084
      O    O6321    13.97189   17.36520   24.02836
      H    H6322    14.30751   17.95187   24.70615
      H    H6323    13.05192   17.23447   24.25814
      O    O6324     1.82530   20.87726   11.32311
      H    H6325     2.18507   21.47619   10.66884
      H    H6326     1.68454   21.42325   12.09662
      O    O6327     1.52223    5.15472   24.81070
      H    H6328     0.80808    5.35441   25.41596
      H    H6329     1.94173    4.37867   25.18218
      O    O6330    15.62533   14.76776   12.21008
      H    H6331    15.33750   15.22903   12.99787
      H    H6332    16.42054   14.30754   12.47851
      O    O6333     1.80949   19.14274   25.79735
      H    H6334     1.91860   18.20222   25.65689
      H    H6335     1.15755   19.40822   25.14873
      O    O6336     7.84217   18.26038   12.14048
      H    H6337     7.83318   18.99335   11.52493
      H    H6338     6.92200   18.01353   12.23318
      O    O6339     3.44283   13.48187   12.88516
      H    H6340     2.83562   14.22176   12.89469
      H    H6341     3.91776   13.57180   12.05898
      O    O6342    13.01611    7.64695   22.56085
      H    H6343    13.38419    6.82647   22.88880
      H    H6344    12.15593    7.70714   22.97641
      O    O6345    16.38231    6.60264   13.36960
      H    H6346    15.75363    6.70721   12.65543
      H    H6347    15.88750    6.82232   14.15899
      O    O6348    10.82813   18.32320   10.80300
      H    H6349    10.92932   18.11960    9.87320
      H    H6350     9.92830   18.06903   11.00778
      O    O6351     8.35071    8.88124   14.78539
      H    H6352     7.64233    9.34987   15.22675
      H    H6353     8.63516    8.22344   15.41991
      O    O6354     9.97631   10.30091   22.78464
      H    H6355    10.47483   10.77549   23.44983
      H    H6356    10.11860    9.37726   22.99165
      O    O6357    12.38226    5.60630   16.22497
      H    H6358    12.25904    5.62492   15.27592
      H    H6359    13.33071    5.65420   16.34481
      O    O6360     9.46994   20.84183   15.49777
      H    H6361     9.72409   20.80397   14.57570
      H    H6362     8.52118   20.71517   15.49059
      O    O6363     6.55422    7.18974   12.16046
      H    H6364     7.40327    7.62676   12.09448
      H    H6365     6.18734    7.50177   12.98767
      O    O6366    17.18299    6.51770   23.62748
      H    H6367    16.68035    7.25824   23.96686
      H    H6368    17.99866    6.90610   23.31116
      O    O6369     5.45336   13.44298   10.63401
      H    H6370     6.21969   13.33112   11.19656
      H    H6371     5.53083   12.74678    9.98169
      O    O6372     4.14803   10.87549   11.31730
      H    H6373     4.22839    9.92824   11.42904
      H    H6374     5.04001   11.20618   11.42337
      O    O6375     4.94951   21.02503   18.42076
      H    H6376     5.68575   20.47657   18.69161
      H    H6377     5.33360   21.89063   18.28136
      O    O6378     1.83405   17.09238   14.29491
      H    H6379     0.90803   17.33450   14.28545
      H    H6380     2.29970   17.91981   14.17338
      O    O6381     3.95533   20.20963   27.60932
      H    H6382     4.75661   20.53084   28.02286
      H    H6383     3.44052   19.84919   28.33131
      O    O6384     8.05974   20.19806   10.24331
      H    H6385     8.85260   20.48694    9.79149
      H    H6386     7.54017   19.76727    9.56456
      O    O6387    14.22183   20.04565   26.16780
      H    H6388    15.17401   19.96145   26.11782
      H    H6389    14.07466   20.70982   26.84118
      O    O6390    17.11275   19.42507   11.66699
      H    H6391    16.82690   19.01158   10.85241
      H    H6392    16.91471   20.35384   11.54704
      O    O6393     1.67511   12.69698   26.55292
      H    H6394     2.17902   12.11771   27.12454
      H    H6395     0.93586   12.98100   27.09056
      O    O6396     8.57748   15.41840   10.10755
      H    H6397     8.47254   14.80363   10.83369
      H    H6398     8.40990   14.89499    9.32385
      O    O6399     8.72891   14.10408   26.08647
      H    H6400     7.96348   14.67258   26.00194
      H    H6401     8.91050   13.81170   25.19330
      O    O6402    11.81775   14.48040   10.71175
      H    H6403    11.26876   14.92733   11.35602
      H    H6404    12.43968   13.97533   11.23552
      O    O6405    15.87124   15.83461   26.64397
      H    H6406    16.61219   16.17219   26.14072
      H    H6407    15.10851   16.00382   26.09095
      O    O6408     3.70742   10.83994   27.44793
      H    H6409     3.74796   10.54133   28.35645
      H    H6410     4.56197   11.24070   27.28868
      O    O6411     7.48526   13.43949   12.60828
      H    H6412     7.90690   13.27348   13.45142
      H    H6413     7.61035   12.62952   12.11379
      O    O6414     5.64800    9.41915   25.41538
      H    H6415     5.11765    8.92824   24.78771
      H    H6416     6.31681    9.84757   24.88117
      O    O6417     9.99803   12.46325    9.85599
      H    H6418    10.51859   11.74816    9.49010
      H    H6419    10.64487   13.10184   10.15604
      O    O6420    14.54581   13.88609   25.17950
      H    H6421    14.95991   14.04060   26.02854
      H    H6422    13.61091   14.01162   25.34207
      O    O6423     6.13523    6.38539   25.49511
      H    H6424     6.04092    5.76746   24.77019
      H    H6425     5.55497    7.11201   25.26810
      O    O6426     8.90138    4.94271   22.52784
      H    H6427     8.45311    4.96514   21.68240
      H    H6428     8.26790    4.54461   23.12487
      O    O6429     9.30733   13.83814   23.14909
      H    H6430     9.72614   14.68142   22.97671
      H    H6431     8.38820   13.97535   22.91977
      O    O6432    11.64372   11.56976   24.53287
      H    H6433    11.76334   10.97387   25.27236
      H    H6434    12.50312   11.60673   24.11300
      O    O6435     6.38115    9.51282    9.55409
      H    H6436     6.18006    8.64955    9.91543
      H    H6437     6.21036    9.42615    8.61625
      O    O6438     7.15807   20.14344   24.26486
      H    H6439     6.62018   20.86805   23.94573
      H    H6440     7.41147   19.66648   23.47460
      O    O6441     8.41060    8.11190   25.79045
      H    H6442     9.00057    7.80348   26.47824
      H    H6443     7.59262    7.63987   25.94644
      O    O6444    13.22994    7.72848   26.02376
      H    H6445    12.54149    7.06663   25.95876
      H    H6446    13.95054    7.28230   26.46860
      O    O6447    13.85998    4.32364   12.08278
      H    H6448    14.14021    3.48043   12.43872
      H    H6449    13.08656    4.55595   12.59666
      O    O6450     5.17943    6.61288    9.54188
      H    H6451     5.48202    6.61962    8.63380
      H    H6452     5.91889    6.26266   10.03865
      O    O6453    10.01430   21.37856   24.52353
      H    H6454     9.94017   22.28208   24.83076
      H    H6455     9.11218   21.05975   24.49573
      O    O6456     8.39792    5.55634   10.52750
      H    H6457     8.05012    4.87874    9.94775
      H    H6458     8.59920    5.09529   11.34184
      O    O6459    10.56283   20.54442   12.14616
      H    H6460    11.45791   20.88291   12.16804
      H    H6461    10.59459   19.82236   11.51859
      O    O6462     4.20244   15.91712   10.37486
      H    H6463     4.63993   16.46009   11.03062
      H    H6464     4.68722   15.09182   10.38450
      O    O6465     1.41702   18.70602   17.82689
      H    H6466     1.74733   17.83813   17.59475
      H    H6467     1.84612   18.91188   18.65738
      O    O6468     6.01322   17.03692   15.48709
      H    H6469     5.71277   16.91342   16.38748
      H    H6470     5.90697   16.17778   15.07866
      O    O6471     1.90605   19.57308   20.56505
      H    H6472     1.46914   19.75316   21.39747
      H    H6473     2.47381   20.33054   20.42322
      O    O6474    17.54226   19.07478   24.85278
      H    H6475    16.94246   19.13404   24.10917
      H    H6476    17.67165   18.13528   24.98247
      O    O6477    18.78241   16.81656   10.18975
      H    H6478    17.95170   16.88423   10.66048
      H    H6479    18.95959   17.70698    9.88644
      O    O6480    18.23805   13.56131   12.69317
      H    H6481    18.99995   14.13098   12.79914
      H    H6482    18.25349   12.99403   13.46400
      O    O6483     1.73849   12.08511   16.92394
      H    H6484     1.08337   11.81627   16.27991
      H    H6485     2.57628   11.97555   16.47414
      O    O6486    16.22743   15.79998   22.95040
      H    H6487    15.41341   16.22970   23.21298
      H    H6488    16.63485   16.41182   22.33730
      O    O6489    14.68753    6.87923   11.14579
      H    H6490    15.10602    6.69233   10.30545
      H    H6491    14.38114    6.02714   11.45608
      O    O6492     2.77608   12.47036   21.46427
      H    H6493     3.14339   12.38310   22.34388
      H    H6494     2.20716   11.70702   21.36496
      O    O6495    17.57647   10.93880   24.47732
      H    H6496    17.34508   10.71008   23.57712
      H    H6497    17.83692   11.85876   24.43181
      O    O6498     2.32768    9.38127   25.37012
      H    H6499     1.43329    9.34795   25.70949
      H    H6500     2.86744    9.57995   26.13524
      O    O6501    16.01527    6.16444   27.25529
      H    H6502    16.89229    6.17278   27.63869
      H    H6503    16.02736    5.42753   26.64453
      O    O6504     0.95230    9.29500   12.86647
      H    H6505     0.04870    9.55802   12.69164
      H    H6506     1.43636    9.56612   12.08647
      O    O6507     3.49502    8.35155   10.77591
      H    H6508     4.20419    7.92987   10.29064
      H    H6509     2.77901    8.41908   10.14425
      O    O6510     3.14243    4.40549    9.81618
      H    H6511     3.86525    4.94638   10.13430
      H    H6512     3.41489    4.13183    8.94033
      O    O6513    16.95160    9.27473   14.08333
      H    H6514    17.44751    9.04182   14.86822
      H    H6515    16.75321    8.43592   13.66710
      O    O6516     2.83165    3.65610   19.71844
      H    H6517     3.47927    3.10584   19.27795
      H    H6518     3.25184    3.91042   20.54002
      O    O6519    18.38031    7.91083   16.61710
      H    H6520    18.27024    7.75643   17.55533
      H    H6521    19.14107    7.38292   16.37464
      O    O6522    16.72689    3.85024   23.07540
      H    H6523    17.36411    4.46365   23.44132
      H    H6524    16.87438    3.88631   22.13032
      O    O6525    19.26934    5.74162    9.85772
      H    H6526    20.19427    5.60974    9.64954
      H    H6527    19.24692    5.82090   10.81136
      O    O6528    19.34319    6.51269   12.48339
      H    H6529    18.54834    6.44720   13.01268
      H    H6530    19.54752    7.44775   12.47192
      O    O6531     2.58485    3.81167   22.46097
      H    H6532     2.23633    4.26805   23.22679
      H    H6533     2.25362    2.91738   22.54321
      O    O6534     4.19129   16.98363   26.62629
      H    H6535     4.14825   16.61292   27.50773
      H    H6536     4.32239   17.92139   26.76647
      O    O6537     7.89189   18.53959   22.22726
      H    H6538     7.65103   18.80705   21.34031
      H    H6539     8.83216   18.71016   22.28235
      O    O6540    10.09733    5.00286   25.98291
      H    H6541    10.03622    5.59504   26.73245
      H    H6542    11.03737    4.89546   25.83794
      O    O6543    12.73479    4.65987   25.62214
      H    H6544    13.34883    4.97779   24.96025
      H    H6545    13.27975    4.17472   26.24173
      O    O6546    19.15231   20.55903   23.02832
      H    H6547    18.65814   20.95592   22.31104
      H    H6548    18.54364   19.93395   23.42205
      O    O6549     3.25692    3.33929   25.73605
      H    H6550     3.80522    3.15810   24.97266
      H    H6551     3.32245    2.54870   26.27168
      O    O6552     4.03009   19.92986   23.74607
      H    H6553     3.43612   19.79833   24.48507
      H    H6554     4.02248   19.09367   23.28028
      O    O6555    13.47559    3.22308   21.94907
      H    H6556    12.60158    3.55659   21.74636
      H    H6557    13.36667    2.75040   22.77426
      O    O6558    14.38279    5.43017   23.33324
      H    H6559    14.05413    4.61534   22.95341
      H    H6560    15.33102    5.38715   23.20981
      O    O6561    16.83625   21.20137   20.30700
      H    H6562    16.37655   21.95295   19.93280
      H    H6563    16.20750   20.48202   20.24848
      O    O6564     3.66132   17.29569   22.69687
      H    H6565     2.93472   16.67622   22.62947
      H    H6566     3.72223   17.68976   21.82668
      O    O6567     7.26583   19.51019   19.48181
      H    H6568     7.78233   18.89893   18.95664
      H    H6569     7.91556   20.01307   19.97291
      O    O6570    10.00538   20.40104   20.30871
      H    H6571    10.29316   20.14647   19.43201
      H    H6572    10.51770   19.84878   20.89927
      O    O6573    11.22308    4.14006   20.88836
      H    H6574    10.44026    4.61461   21.16804
      H    H6575    10.92937    3.23555   20.77968
      O    O6576    15.77518    4.84237   18.93327
      H    H6577    16.21599    4.78688   18.08543
      H    H6578    15.50594    5.75817   19.00429
      O    O6579    17.63904    4.47390   16.94415
      H    H6580    17.57788    3.53002   16.79725
      H    H6581    18.41824    4.58191   17.48950
      O    O6582     1.94432   20.61313   15.90655
      H    H6583     1.77652   19.98020   16.60474
      H    H6584     1.07777   20.81907   15.55597
      O    O6585     2.56712    4.44481   13.40973
      H    H6586     3.32505    4.55770   12.83614
      H    H6587     2.10483    5.28173   13.36408
      O    O6588     9.10850    6.55874   16.39996
      H    H6589     8.29595    6.18443   16.05955
      H    H6590     9.61266    5.80325   16.70208
      O    O6591    13.61100    3.22298   17.63827
      H    H6592    14.21393    3.79500   18.11312
      H    H6593    12.87030    3.78693   17.41566
      O    O6594    16.75446    3.62514   12.91230
      H    H6595    16.94952    4.52348   13.17904
      H    H6596    15.96744    3.39385   13.40559
      O    O6597     3.55059   19.30646   13.35156
      H    H6598     3.02535   19.68726   12.64776
      H    H6599     3.47504   19.93153   14.07253
      O    O6600     4.93963    4.97122   11.94993
      H    H6601     5.46891    4.18420   11.82072
      H    H6602     5.57246    5.65034   12.18348
      O    O6603     7.13342    4.70873   15.00447
      H    H6604     6.50369    4.00746   15.17148
      H    H6605     6.59393    5.46914   14.78778
      O    O6606    10.07261   21.32265   27.67553
      H    H6607    10.99934   21.08708   27.71913
      H    H6608    10.05765   22.14985   27.19413
      O    O6609    18.30712   20.86521   14.67295
      H    H6610    18.48234   20.17898   14.02905
      H    H6611    17.60927   21.38992   14.28062
      O    O6612     7.25897    3.98713   27.43972
      H    H6613     6.97740    4.49049   26.67580
      H    H6614     7.64094    3.18930   27.07393
      O    O6615     6.14988   21.25469   12.22649
      H    H6616     6.88176   20.97062   11.67887
      H    H6617     6.40925   21.01602   13.11642
      O    O6618     5.31136   17.37117   12.23112
      H    H6619     4.68225   17.83968   12.77970
      H    H6620     5.42614   16.52609   12.66574
      O    O6621    13.86052    3.40249   28.01776
      H    H6622    13.74706    3.72195   28.91292
      H    H6623    14.67749    3.80374   27.72149
      O    O6624    31.54068   11.42173   17.15559
      H    H6625    31.46009   10.50719   16.88476
      H    H6626    31.12713   11.91844   16.44956
      O    O6627    29.67249   13.19964   19.03651
      H    H6628    28.89670   12.71968   19.32637
      H    H6629    30.32378   12.52020   18.86213
      O    O6630    33.69323   17.60565   17.81643
      H    H6631    33.23138   16.83438   18.14514
      H    H6632    34.50579   17.63226   18.32167
      O    O6633    22.09827    8.47181   13.69833
      H    H6634    21.20994    8.81340   13.59632
      H    H6635    22.38238    8.27184   12.80641
      O    O6636    29.91956   19.89146   17.43683
      H    H6637    29.30071   20.34721   16.86627
      H    H6638    30.77474   20.04660   17.03580
      O    O6639    29.11339   15.87535   19.04353
      H    H6640    29.04421   14.93435   18.88244
      H    H6641    29.87537   15.96550   19.61579
      O    O6642    21.30405    6.48081   21.36919
      H    H6643    21.12434    5.58338   21.64947
      H    H6644    20.90206    7.02799   22.04389
      O    O6645    30.14390    8.68239   19.27042
      H    H6646    30.52039    7.80958   19.15779
      H    H6647    30.04585    9.01826   18.37947
      O    O6648    24.27440    7.05496   14.73217
      H    H6649    24.38108    7.95533   15.03904
      H    H6650    23.36364    7.00675   14.44163
      O    O6651    33.92632    6.17744   16.20326
      H    H6652    34.74728    5.68709   16.24581
      H    H6653    33.95972    6.76720   16.95644
      O    O6654    21.92272    8.97686   19.97743
      H    H6655    22.60373    9.24069   20.59617
      H    H6656    21.60753    8.13694   20.31123
      O    O6657    38.21627    8.19411   22.76762
      H    H6658    37.51149    8.58228   22.24913
      H    H6659    38.48206    8.88914   23.36971
      O    O6660    24.39879    4.66345   23.33103
      H    H6661    24.40063    5.18069   22.52562
      H    H6662    23.56922    4.18647   23.30802
      O    O6663    30.78590   14.77538   14.83002
      H    H6664    30.16762   15.24032   14.26629
      H    H6665    31.29822   15.46813   15.24697
      O    O6666    34.16246    8.11747   18.97601
      H    H6667    33.45802    8.40596   19.55632
      H    H6668    34.52368    8.92749   18.61597
      O    O6669    24.08032    6.37444   21.33807
      H    H6670    24.42200    7.21865   21.04346
      H    H6671    23.14190    6.52282   21.45461
      O    O6672    20.15422   15.46103   12.20398
      H    H6673    19.77701   15.94974   11.47247
      H    H6674    20.41152   16.13356   12.83463
      O    O6675    35.77874   17.73499   21.23876
      H    H6676    35.09509   18.40490   21.23043
      H    H6677    36.31817   17.93305   20.47325
      O    O6678    37.23116    7.56295   19.36693
      H    H6679    36.28365    7.59685   19.49848
      H    H6680    37.55615    8.37685   19.75187
      O    O6681    27.76311    3.86267   17.66253
      H    H6682    28.07061    3.30736   16.94608
      H    H6683    26.83318    3.99712   17.47983
      O    O6684    33.31462   19.57940   19.95328
      H    H6685    33.32733   19.17563   19.08550
      H    H6686    32.76214   20.35413   19.84942
      O    O6687    34.60916   16.30102   15.04229
      H    H6688    34.49879   15.35846   15.16724
      H    H6689    34.60598   16.66259   15.92857
      O    O6690    32.71316   14.48238   21.28154
      H    H6691    33.13004   14.26840   20.44688
      H    H6692    33.43714   14.73966   21.85240
      O    O6693    30.15119   11.92755   14.39854
      H    H6694    29.22411   11.86129   14.62739
      H    H6695    30.30367   12.86557   14.28407
      O    O6696    30.13809    8.19925   11.39526
      H    H6697    29.19846    8.36065   11.48051
      H    H6698    30.45642    8.91782   10.84886
      O    O6699    36.65937   12.88111   21.37316
      H    H6700    35.83123   12.95042   20.89818
      H    H6701    37.25442   13.46654   20.90475
      O    O6702    34.18091   13.48958   14.90207
      H    H6703    33.56216   13.15154   14.25470
      H    H6704    34.16336   12.84556   15.60999
      O    O6705    33.62357    9.66804   22.31865
      H    H6706    33.21069   10.49341   22.57265
      H    H6707    32.89117    9.08254   22.12629
      O    O6708    34.31358   19.71397   23.00675
      H    H6709    33.83664   20.52119   22.81401
      H    H6710    33.62976   19.06180   23.15937
      O    O6711    32.35738   12.72827   11.90934
      H    H6712    32.79671   11.89051   11.76313
      H    H6713    33.07023   13.36121   11.99576
      O    O6714    30.46692   17.66787   15.87747
      H    H6715    30.90651   18.41031   15.46301
      H    H6716    30.40561   17.91053   16.80136
      O    O6717    35.93910    3.98255   10.22345
      H    H6718    35.62636    4.07523   11.12335
      H    H6719    36.70035    4.56065   10.17319
      O    O6720    22.45731   11.34853   14.68118
      H    H6721    22.33707   12.07474   14.06931
      H    H6722    22.14740   10.57882   14.20397
      O    O6723    37.89350   19.47517   28.07589
      H    H6724    38.36947   19.95345   28.75479
      H    H6725    38.51422   19.40691   27.35044
      O    O6726    20.09585   14.52004   20.48805
      H    H6727    20.17389   14.65492   19.54362
      H    H6728    20.71002   13.81163   20.68086
      O    O6729    37.29683   16.66645   25.23589
      H    H6730    37.42313   16.42764   24.31761
      H    H6731    37.33896   15.83490   25.70810
      O    O6732    31.15850   20.36925   23.80537
      H    H6733    31.67297   20.28005   24.60761
      H    H6734    30.31541   20.71522   24.09816
      O    O6735    33.13394   20.65478   13.23377
      H    H6736    32.97405   20.36508   14.13195
      H    H6737    32.96861   19.87880   12.69829
      O    O6738    32.83655   18.16354   11.79357
      H    H6739    32.14307   18.16127   11.13380
      H    H6740    33.57884   17.73947   11.36299
      O    O6741    32.40155   19.78981   15.86842
      H    H6742    32.85724   19.00875   16.18228
      H    H6743    32.74080   20.50049   16.41254
      O    O6744    37.14923    8.71970   26.20086
      H    H6745    36.53365    9.22766   25.67241
      H    H6746    36.82887    7.81953   26.14346
      O    O6747    20.15180   15.56146   23.02749
      H    H6748    20.31491   15.09199   22.20943
      H    H6749    20.61705   15.05381   23.69238
      O    O6750    24.92368    4.69203   18.06355
      H    H6751    24.48049    5.47299   17.73200
      H    H6752    25.48218    5.01502   18.77064
      O    O6753    29.21066    7.55889   23.66708
      H    H6754    28.74860    7.76719   24.47907
      H    H6755    28.80847    6.74482   23.36415
      O    O6756    34.21111    8.77978   24.79675
      H    H6757    33.36047    8.48036   25.11765
      H    H6758    34.05129    9.02398   23.88513
      O    O6759    31.30608   10.27996   26.89663
      H    H6760    31.63142    9.44633   26.55685
      H    H6761    32.09411   10.80281   27.04446
      O    O6762    28.03956    4.31310   12.94413
      H    H6763    27.41498    4.30909   13.66946
      H    H6764    27.95257    3.44620   12.54773
      O    O6765    26.96127    5.23677   19.92251
      H    H6766    27.25850    6.14305   19.84171
      H    H6767    27.50982    4.74864   19.30847
      O    O6768    31.94488    9.82173   14.39074
      H    H6769    31.34577   10.54531   14.20710
      H    H6770    32.49284    9.75941   13.60838
      O    O6771    30.55136    8.45808   16.42107
      H    H6772    30.94432    8.77530   15.60794
      H    H6773    30.91305    7.57927   16.53552
      O    O6774    22.28608    7.12532   24.61108
      H    H6775    21.89241    7.97284   24.81836
      H    H6776    21.59792    6.48795   24.80194
      O    O6777    28.86058    7.20881   27.68075
      H    H6778    28.17041    7.01603   28.31536
      H    H6779    29.60381    7.49228   28.21318
      O    O6780    19.58778    5.04816   18.64409
      H    H6781    19.29909    5.61845   19.35658
      H    H6782    20.33236    4.56861   19.00721
      O    O6783    19.77480    8.99017    9.85436
      H    H6784    19.69227    9.93325    9.99586
      H    H6785    19.42311    8.84766    8.97559
      O    O6786    31.13688   11.04866   20.51614
      H    H6787    30.40499   11.55734   20.86515
      H    H6788    30.73931   10.23165   20.21502
      O    O6789    27.57462    7.72408   18.92139
      H    H6790    27.57822    7.28307   18.07185
      H    H6791    28.46973    8.04581   19.02858
      O    O6792    23.42485    7.60673   17.88081
      H    H6793    23.08486    8.08425   18.63752
      H    H6794    22.66259    7.15324   17.52092
      O    O6795    27.63663    8.72528   11.91207
      H    H6796    27.75791    8.68393   12.86065
      H    H6797    27.25148    9.58770   11.75674
      O    O6798    31.59947    6.50202   19.92844
      H    H6799    31.61674    6.95289   20.77262
      H    H6800    31.35103    5.60259   20.14178
      O    O6801    35.02654    3.91524   25.76708
      H    H6802    35.35112    3.18421   26.29287
      H    H6803    35.06219    3.59661   24.86518
      O    O6804    20.73946    6.52862   16.79728
      H    H6805    20.45415    6.16419   17.63514
      H    H6806    20.67735    5.79667   16.18360
      O    O6807    34.95233   14.02775   19.37568
      H    H6808    35.67224   14.52328   18.98529
      H    H6809    34.75051   13.34954   18.73107
      O    O6810    30.41332    5.42155   13.51862
      H    H6811    29.59978    4.92287   13.44315
      H    H6812    30.21952    6.26137   13.10225
      O    O6813    30.33421   14.09866   25.26258
      H    H6814    30.26794   13.17823   25.00834
      H    H6815    29.70472   14.19620   25.97704
      O    O6816    33.12816    9.79351   11.81483
      H    H6817    34.01612   10.10524   11.63997
      H    H6818    33.09867    8.92074   11.42289
      O    O6819    29.12422   15.96588   12.49365
      H    H6820    29.46579   16.71011   11.99798
      H    H6821    28.29549   16.27900   12.85613
      O    O6822    30.26588   16.92072   25.01296
      H    H6823    30.28033   15.98881   24.79485
      H    H6824    29.55839   17.00669   25.65194
      O    O6825    35.39959   11.10470   11.28282
      H    H6826    35.31596   11.53612   10.43246
      H    H6827    36.11901   11.56453   11.71550
      O    O6828    36.47700   13.56145   24.35982
      H    H6829    35.75182   14.15433   24.16276
      H    H6830    37.00455   13.55380   23.56115
      O    O6831    36.42831   17.95892   14.01103
      H    H6832    35.78593   17.30449   14.28541
      H    H6833    36.04138   18.36443   13.23510
      O    O6834    32.00696   15.28747   17.85820
      H    H6835    32.35934   14.69028   17.19834
      H    H6836    31.12319   14.96189   18.02903
      O    O6837    20.23253   11.66452   10.75695
      H    H6838    21.10201   11.94700   11.04054
      H    H6839    19.74156   12.47811   10.64183
      O    O6840    29.69927   18.56247   22.10701
      H    H6841    30.34349   18.76841   22.78435
      H    H6842    30.06221   17.80131   21.65409
      O    O6843    23.29719    3.39560   15.35003
      H    H6844    23.16865    3.38739   16.29852
      H    H6845    22.47339    3.73391   14.99913
      O    O6846    30.97248   16.56571   20.82475
      H    H6847    31.61470   15.86502   20.93797
      H    H6848    31.49741   17.34555   20.64444
      O    O6849    34.81805   16.85057   10.54867
      H    H6850    34.59181   16.13361   11.14113
      H    H6851    34.42767   16.60181    9.71084
      O    O6852    32.74624   17.36520   24.02836
      H    H6853    33.08186   17.95187   24.70615
      H    H6854    31.82627   17.23447   24.25814
      O    O6855    20.29658    5.15472   24.81070
      H    H6856    19.58243    5.35441   25.41596
      H    H6857    20.71608    4.37867   25.18218
      O    O6858    34.39968   14.76776   12.21008
      H    H6859    34.11185   15.22903   12.99787
      H    H6860    35.19489   14.30754   12.47851
      O    O6861    20.58384   19.14274   25.79735
      H    H6862    20.69295   18.20222   25.65689
      H    H6863    19.93190   19.40822   25.14873
      O    O6864    28.57510   17.41433   27.19717
      H    H6865    28.25479   16.69526   27.74174
      H    H6866    27.90093   18.08984   27.27077
      O    O6867    31.79046    7.64695   22.56085
      H    H6868    32.15854    6.82647   22.88880
      H    H6869    30.93028    7.70714   22.97641
      O    O6870    35.15666    6.60264   13.36960
      H    H6871    34.52798    6.70721   12.65543
      H    H6872    34.66185    6.82232   14.15899
      O    O6873    29.60248   18.32320   10.80300
      H    H6874    29.70367   18.11960    9.87320
      H    H6875    28.70265   18.06903   11.00778
      O    O6876    27.12506    8.88124   14.78539
      H    H6877    26.41668    9.34987   15.22675
      H    H6878    27.40951    8.22344   15.41991
      O    O6879    28.75066   10.30091   22.78464
      H    H6880    29.24918   10.77549   23.44983
      H    H6881    28.89295    9.37726   22.99165
      O    O6882    31.15661    5.60630   16.22497
      H    H6883    31.03339    5.62492   15.27592
      H    H6884    32.10506    5.65420   16.34481
      O    O6885    25.32857    7.18974   12.16046
      H    H6886    26.17762    7.62676   12.09448
      H    H6887    24.96169    7.50177   12.98767
      O    O6888    35.95734    6.51770   23.62748
      H    H6889    35.45470    7.25824   23.96686
      H    H6890    36.77301    6.90610   23.31116
      O    O6891    34.24954   11.76102   17.07362
      H    H6892    33.30856   11.77604   17.24839
      H    H6893    34.56395   10.97462   17.51965
      O    O6894    22.92238   10.87549   11.31730
      H    H6895    23.00274    9.92824   11.42904
      H    H6896    23.81436   11.20618   11.42337
      O    O6897    36.25210   18.93191   18.74904
      H    H6898    36.37684   19.75502   19.22143
      H    H6899    37.11866   18.72098   18.40146
      O    O6900    22.72968   20.20963   27.60932
      H    H6901    23.53096   20.53084   28.02286
      H    H6902    22.21487   19.84919   28.33131
      O    O6903    31.56615   16.31762   27.55686
      H    H6904    30.95996   16.34078   26.81643
      H    H6905    31.26156   15.58592   28.09358
      O    O6906    32.99618   20.04565   26.16780
      H    H6907    33.94836   19.96145   26.11782
      H    H6908    32.84901   20.70982   26.84118
      O    O6909    35.88710   19.42507   11.66699
      H    H6910    35.60125   19.01158   10.85241
      H    H6911    35.68906   20.35384   11.54704
      O    O6912    30.59210   14.48040   10.71175
      H    H6913    30.04311   14.92733   11.35602
      H    H6914    31.21403   13.97533   11.23552
      O    O6915    34.64559   15.83461   26.64397
      H    H6916    35.38654   16.17219   26.14072
      H    H6917    33.88286   16.00382   26.09095
      O    O6918    22.48177   10.83994   27.44793
      H    H6919    22.52231   10.54133   28.35645
      H    H6920    23.33632   11.24070   27.28868
      O    O6921    28.77238   12.46325    9.85599
      H    H6922    29.29294   11.74816    9.49010
      H    H6923    29.41922   13.10184   10.15604
      O    O6924    33.32016   13.88609   25.17950
      H    H6925    33.73426   14.04060   26.02854
      H    H6926    32.38526   14.01162   25.34207
      O    O6927    33.79238   11.22571   27.18341
      H    H6928    34.37445   10.47094   27.09546
      H    H6929    33.96855   11.75645   26.40656
      O    O6930    24.90958    6.38539   25.49511
      H    H6931    24.81527    5.76746   24.77019
      H    H6932    24.32932    7.11201   25.26810
      O    O6933    27.67573    4.94271   22.52784
      H    H6934    27.22746    4.96514   21.68240
      H    H6935    27.04225    4.54461   23.12487
      O    O6936    30.41807   11.56976   24.53287
      H    H6937    30.53769   10.97387   25.27236
      H    H6938    31.27747   11.60673   24.11300
      O    O6939    32.75686   12.12348   23.10912
      H    H6940    32.23038   12.64774   22.50564
      H    H6941    33.10000   12.75622   23.74010
      O    O6942    27.18495    8.11190   25.79045
      H    H6943    27.77492    7.80348   26.47824
      H    H6944    26.36697    7.63987   25.94644
      O    O6945    32.00429    7.72848   26.02376
      H    H6946    31.31584    7.06663   25.95876
      H    H6947    32.72489    7.28230   26.46860
      O    O6948    32.63433    4.32364   12.08278
      H    H6949    32.91456    3.48043   12.43872
      H    H6950    31.86091    4.55595   12.59666
      O    O6951    23.95378    6.61288    9.54188
      H    H6952    24.25637    6.61962    8.63380
      H    H6953    24.69324    6.26266   10.03865
      O    O6954    28.78865   21.37856   24.52353
      H    H6955    28.71452   22.28208   24.83076
      H    H6956    27.88653   21.05975   24.49573
      O    O6957    27.17227    5.55634   10.52750
      H    H6958    26.82447    4.87874    9.94775
      H    H6959    27.37355    5.09529   11.34184
      O    O6960    29.33718   20.54442   12.14616
      H    H6961    30.23226   20.88291   12.16804
      H    H6962    29.36894   19.82236   11.51859
      O    O6963    20.19137   18.70602   17.82689
      H    H6964    20.52168   17.83813   17.59475
      H    H6965    20.62047   18.91188   18.65738
      O    O6966    36.31661   19.07478   24.85278
      H    H6967    35.71681   19.13404   24.10917
      H    H6968    36.44600   18.13528   24.98247
      O    O6969    37.55676   16.81656   10.18975
      H    H6970    36.72605   16.88423   10.66048
      H    H6971    37.73394   17.70698    9.88644
      O    O6972    37.01240   13.56131   12.69317
      H    H6973    37.77430   14.13098   12.79914
      H    H6974    37.02784   12.99403   13.46400
      O    O6975    38.01840   14.41632   17.53737
      H    H6976    38.38928   13.63305   17.13096
      H    H6977    38.65859   15.10523   17.35910
      O    O6978    35.00178   15.79998   22.95040
      H    H6979    34.18776   16.22970   23.21298
      H    H6980    35.40920   16.41182   22.33730
      O    O6981    37.06432   13.85475    9.85043
      H    H6982    37.33921   14.76264    9.72235
      H    H6983    36.87540   13.79100   10.78662
      O    O6984    33.46188    6.87923   11.14579
      H    H6985    33.88037    6.69233   10.30545
      H    H6986    33.15549    6.02714   11.45608
      O    O6987    36.96086   11.79165   14.84337
      H    H6988    36.58522   11.02444   14.41150
      H    H6989    36.23117   12.17392   15.33086
      O    O6990    36.35082   10.93880   24.47732
      H    H6991    36.11943   10.71008   23.57712
      H    H6992    36.61127   11.85876   24.43181
      O    O6993    21.10203    9.38127   25.37012
      H    H6994    20.20764    9.34795   25.70949
      H    H6995    21.64179    9.57995   26.13524
      O    O6996    34.78962    6.16444   27.25529
      H    H6997    35.66664    6.17278   27.63869
      H    H6998    34.80171    5.42753   26.64453
      O    O6999    19.72665    9.29500   12.86647
      H    H7000    18.82305    9.55802   12.69164
      H    H7001    20.21071    9.56612   12.08647
      O    O7002    36.23595   10.01740   18.14409
      H    H7003    36.75970    9.52366   17.51311
      H    H7004    36.82189   10.15243   18.88885
      O    O7005    36.41492   10.10138   21.66605
      H    H7006    35.46519   10.06774   21.78055
      H    H7007    36.59622   11.01140   21.43102
      O    O7008    22.26937    8.35155   10.77591
      H    H7009    22.97854    7.92987   10.29064
      H    H7010    21.55336    8.41908   10.14425
      O    O7011    21.91678    4.40549    9.81618
      H    H7012    22.63960    4.94638   10.13430
      H    H7013    22.18924    4.13183    8.94033
      O    O7014    35.72595    9.27473   14.08333
      H    H7015    36.22186    9.04182   14.86822
      H    H7016    35.52756    8.43592   13.66710
      O    O7017    21.60600    3.65610   19.71844
      H    H7018    22.25362    3.10584   19.27795
      H    H7019    22.02619    3.91042   20.54002
      O    O7020    37.15466    7.91083   16.61710
      H    H7021    37.04459    7.75643   17.55533
      H    H7022    37.91542    7.38292   16.37464
      O    O7023    35.50124    3.85024   23.07540
      H    H7024    36.13846    4.46365   23.44132
      H    H7025    35.64873    3.88631   22.13032
      O    O7026    38.04369    5.74162    9.85772
      H    H7027    38.96862    5.60974    9.64954
      H    H7028    38.02127    5.82090   10.81136
      O    O7029    38.11754    6.51269   12.48339
      H    H7030    37.32269    6.44720   13.01268
      H    H7031    38.32187    7.44775   12.47192
      O    O7032    35.05938   20.55184   16.47723
      H    H7033    35.65529   20.23030   15.80067
      H    H7034    35.31720   20.07902   17.26855
      O    O7035    21.35920    3.81167   22.46097
      H    H7036    21.01068    4.26805   23.22679
      H    H7037    21.02797    2.91738   22.54321
      O    O7038    28.87168    5.00286   25.98291
      H    H7039    28.81057    5.59504   26.73245
      H    H7040    29.81172    4.89546   25.83794
      O    O7041    31.50914    4.65987   25.62214
      H    H7042    32.12318    4.97779   24.96025
      H    H7043    32.05410    4.17472   26.24173
      O    O7044    37.92666   20.55903   23.02832
      H    H7045    37.43249   20.95592   22.31104
      H    H7046    37.31799   19.93395   23.42205
      O    O7047    22.03127    3.33929   25.73605
      H    H7048    22.57957    3.15810   24.97266
      H    H7049    22.09680    2.54870   26.27168
      O    O7050    32.24994    3.22308   21.94907
      H    H7051    31.37593    3.55659   21.74636
      H    H7052    32.14102    2.75040   22.77426
      O    O7053    33.15714    5.43017   23.33324
      H    H7054    32.82848    4.61534   22.95341
      H    H7055    34.10537    5.38715   23.20981
      O    O7056    35.61060   21.20137   20.30700
      H    H7057    35.15090   21.95295   19.93280
      H    H7058    34.98185   20.48202   20.24848
      O    O7059    28.77973   20.40104   20.30871
      H    H7060    29.06751   20.14647   19.43201
      H    H7061    29.29205   19.84878   20.89927
      O    O7062    29.99743    4.14006   20.88836
      H    H7063    29.21461    4.61461   21.16804
      H    H7064    29.70372    3.23555   20.77968
      O    O7065    34.54953    4.84237   18.93327
      H    H7066    34.99034    4.78688   18.08543
      H    H7067    34.28029    5.75817   19.00429
      O    O7068    36.41339    4.47390   16.94415
      H    H7069    36.35223    3.53002   16.79725
      H    H7070    37.19259    4.58191   17.48950
      O    O7071    20.71867   20.61313   15.90655
      H    H7072    20.55087   19.98020   16.60474
      H    H7073    19.85212   20.81907   15.55597
      O    O7074    21.34147    4.44481   13.40973
      H    H7075    22.09940    4.55770   12.83614
      H    H7076    20.87918    5.28173   13.36408
      O    O7077    27.88285    6.55874   16.39996
      H    H7078    27.07030    6.18443   16.05955
      H    H7079    28.38701    5.80325   16.70208
      O    O7080    32.38535    3.22298   17.63827
      H    H7081    32.98828    3.79500   18.11312
      H    H7082    31.64465    3.78693   17.41566
      O    O7083    35.52881    3.62514   12.91230
      H    H7084    35.72387    4.52348   13.17904
      H    H7085    34.74179    3.39385   13.40559
      O    O7086    23.71398    4.97122   11.94993
      H    H7087    24.24326    4.18420   11.82072
      H    H7088    24.34681    5.65034   12.18348
      O    O7089    25.90777    4.70873   15.00447
      H    H7090    25.27804    4.00746   15.17148
      H    H7091    25.36828    5.46914   14.78778
      O    O7092    28.84696   21.32265   27.67553
      H    H7093    29.77369   21.08708   27.71913
      H    H7094    28.83200   22.14985   27.19413
      O    O7095    37.08147   20.86521   14.67295
      H    H7096    37.25669   20.17898   14.02905
      H    H7097    36.38362   21.38992   14.28062
      O    O7098    26.03332    3.98713   27.43972
      H    H7099    25.75175    4.49049   26.67580
      H    H7100    26.41529    3.18930   27.07393
      O    O7101    32.63487    3.40249   28.01776
      H    H7102    32.52141    3.72195   28.91292
      H    H7103    33.45184    3.80374   27.72149
      O    O7104    35.41472   20.54964   27.49963
      H    H7105    36.20725   20.05456   27.29223
      H    H7106    35.70803   21.22865   28.10719
      O    O7107    -6.00802   30.19608   17.15559
      H    H7108    -6.08861   29.28154   16.88476
      H    H7109    -6.42157   30.69279   16.44956
      O    O7110    -7.87621   31.97399   19.03651
      H    H7111    -8.65200   31.49403   19.32637
      H    H7112    -7.22492   31.29455   18.86213
      O    O7113    -3.85547   36.38000   17.81643
      H    H7114    -4.31732   35.60873   18.14514
      H    H7115    -3.04291   36.40661   18.32167
      O    O7116    -7.62914   38.66581   17.43683
      H    H7117    -8.24799   39.12156   16.86627
      H    H7118    -6.77396   38.82095   17.03580
      O    O7119    -8.43531   34.64970   19.04353
      H    H7120    -8.50449   33.70870   18.88244
      H    H7121    -7.67333   34.73985   19.61579
      O    O7122    -7.40480   27.45674   19.27042
      H    H7123    -7.02831   26.58393   19.15779
      H    H7124    -7.50285   27.79261   18.37947
      O    O7125    -3.62238   24.95179   16.20326
      H    H7126    -2.80142   24.46144   16.24581
      H    H7127    -3.58898   25.54155   16.95644
      O    O7128     0.66757   26.96846   22.76762
      H    H7129    -0.03721   27.35663   22.24913
      H    H7130     0.93336   27.66349   23.36971
      O    O7131    -6.76280   33.54973   14.83002
      H    H7132    -7.38108   34.01467   14.26629
      H    H7133    -6.25048   34.24248   15.24697
      O    O7134    -3.38624   26.89182   18.97601
      H    H7135    -4.09068   27.18031   19.55632
      H    H7136    -3.02502   27.70184   18.61597
      O    O7137    -1.76996   36.50934   21.23876
      H    H7138    -2.45361   37.17925   21.23043
      H    H7139    -1.23053   36.70740   20.47325
      O    O7140    -0.31754   26.33730   19.36693
      H    H7141    -1.26505   26.37120   19.49848
      H    H7142     0.00745   27.15120   19.75187
      O    O7143    -4.23408   38.35375   19.95328
      H    H7144    -4.22137   37.94998   19.08550
      H    H7145    -4.78656   39.12848   19.84942
      O    O7146    -2.93954   35.07537   15.04229
      H    H7147    -3.04991   34.13281   15.16724
      H    H7148    -2.94272   35.43694   15.92857
      O    O7149    -4.83554   33.25673   21.28154
      H    H7150    -4.41866   33.04275   20.44688
      H    H7151    -4.11156   33.51401   21.85240
      O    O7152    -7.39751   30.70190   14.39854
      H    H7153    -8.32459   30.63564   14.62739
      H    H7154    -7.24503   31.63992   14.28407
      O    O7155    -7.41061   26.97360   11.39526
      H    H7156    -8.35024   27.13500   11.48051
      H    H7157    -7.09228   27.69217   10.84886
      O    O7158    -0.88933   31.65546   21.37316
      H    H7159    -1.71747   31.72477   20.89818
      H    H7160    -0.29428   32.24089   20.90475
      O    O7161    -3.36779   32.26393   14.90207
      H    H7162    -3.98654   31.92589   14.25470
      H    H7163    -3.38534   31.61991   15.60999
      O    O7164    -3.92513   28.44239   22.31865
      H    H7165    -4.33801   29.26776   22.57265
      H    H7166    -4.65753   27.85689   22.12629
      O    O7167    -3.23512   38.48832   23.00675
      H    H7168    -3.71206   39.29554   22.81401
      H    H7169    -3.91894   37.83615   23.15937
      O    O7170    -5.19132   31.50262   11.90934
      H    H7171    -4.75199   30.66486   11.76313
      H    H7172    -4.47847   32.13556   11.99576
      O    O7173    -7.08178   36.44222   15.87747
      H    H7174    -6.64219   37.18466   15.46301
      H    H7175    -7.14309   36.68488   16.80136
      O    O7176    -1.60960   22.75690   10.22345
      H    H7177    -1.92234   22.84958   11.12335
      H    H7178    -0.84835   23.33500   10.17319
      O    O7179     0.34480   38.24952   28.07589
      H    H7180     0.82077   38.72780   28.75479
      H    H7181     0.96552   38.18126   27.35044
      O    O7182    -0.25187   35.44080   25.23589
      H    H7183    -0.12557   35.20199   24.31761
      H    H7184    -0.20974   34.60925   25.70810
      O    O7185    -6.39020   39.14360   23.80537
      H    H7186    -5.87573   39.05440   24.60761
      H    H7187    -7.23329   39.48957   24.09816
      O    O7188    -4.41476   39.42913   13.23377
      H    H7189    -4.57465   39.13943   14.13195
      H    H7190    -4.58009   38.65315   12.69829
      O    O7191    -4.71215   36.93789   11.79357
      H    H7192    -5.40563   36.93562   11.13380
      H    H7193    -3.96986   36.51382   11.36299
      O    O7194    -5.14715   38.56416   15.86842
      H    H7195    -4.69146   37.78310   16.18228
      H    H7196    -4.80790   39.27484   16.41254
      O    O7197    -0.39947   27.49405   26.20086
      H    H7198    -1.01505   28.00201   25.67241
      H    H7199    -0.71983   26.59388   26.14346
      O    O7200    -8.33804   26.33324   23.66708
      H    H7201    -8.80010   26.54154   24.47907
      H    H7202    -8.74023   25.51917   23.36415
      O    O7203    -3.33759   27.55413   24.79675
      H    H7204    -4.18823   27.25471   25.11765
      H    H7205    -3.49741   27.79833   23.88513
      O    O7206    -6.24262   29.05431   26.89663
      H    H7207    -5.91728   28.22068   26.55685
      H    H7208    -5.45459   29.57716   27.04446
      O    O7209    -5.60382   28.59608   14.39074
      H    H7210    -6.20293   29.31966   14.20710
      H    H7211    -5.05586   28.53376   13.60838
      O    O7212    -6.99734   27.23243   16.42107
      H    H7213    -6.60438   27.54965   15.60794
      H    H7214    -6.63565   26.35362   16.53552
      O    O7215    -8.68812   25.98316   27.68075
      H    H7216    -9.37829   25.79038   28.31536
      H    H7217    -7.94489   26.26663   28.21318
      O    O7218    -6.41182   29.82301   20.51614
      H    H7219    -7.14371   30.33169   20.86515
      H    H7220    -6.80939   29.00600   20.21502
      O    O7221    -5.94923   25.27637   19.92844
      H    H7222    -5.93196   25.72724   20.77262
      H    H7223    -6.19767   24.37694   20.14178
      O    O7224    -2.52216   22.68959   25.76708
      H    H7225    -2.19758   21.95856   26.29287
      H    H7226    -2.48651   22.37096   24.86518
      O    O7227    -2.59637   32.80210   19.37568
      H    H7228    -1.87646   33.29763   18.98529
      H    H7229    -2.79819   32.12389   18.73107
      O    O7230    -7.13538   24.19590   13.51862
      H    H7231    -7.94892   23.69722   13.44315
      H    H7232    -7.32918   25.03572   13.10225
      O    O7233    -7.21449   32.87301   25.26258
      H    H7234    -7.28076   31.95258   25.00834
      H    H7235    -7.84398   32.97055   25.97704
      O    O7236    -4.42054   28.56786   11.81483
      H    H7237    -3.53258   28.87959   11.63997
      H    H7238    -4.45003   27.69509   11.42289
      O    O7239    -8.42448   34.74023   12.49365
      H    H7240    -8.08291   35.48446   11.99798
      H    H7241    -9.25321   35.05335   12.85613
      O    O7242    -7.28282   35.69507   25.01296
      H    H7243    -7.26837   34.76316   24.79485
      H    H7244    -7.99031   35.78104   25.65194
      O    O7245    -2.14911   29.87905   11.28282
      H    H7246    -2.23274   30.31047   10.43246
      H    H7247    -1.42969   30.33888   11.71550
      O    O7248    -1.07170   32.33580   24.35982
      H    H7249    -1.79688   32.92868   24.16276
      H    H7250    -0.54415   32.32815   23.56115
      O    O7251    -1.12039   36.73327   14.01103
      H    H7252    -1.76277   36.07884   14.28541
      H    H7253    -1.50732   37.13878   13.23510
      O    O7254    -5.54174   34.06182   17.85820
      H    H7255    -5.18936   33.46463   17.19834
      H    H7256    -6.42551   33.73624   18.02903
      O    O7257    -7.84943   37.33682   22.10701
      H    H7258    -7.20521   37.54276   22.78435
      H    H7259    -7.48649   36.57566   21.65409
      O    O7260    -6.57622   35.34006   20.82475
      H    H7261    -5.93400   34.63937   20.93797
      H    H7262    -6.05129   36.11990   20.64444
      O    O7263    -2.73065   35.62492   10.54867
      H    H7264    -2.95689   34.90796   11.14113
      H    H7265    -3.12103   35.37616    9.71084
      O    O7266    -4.80246   36.13955   24.02836
      H    H7267    -4.46684   36.72622   24.70615
      H    H7268    -5.72243   36.00882   24.25814
      O    O7269    -3.14902   33.54211   12.21008
      H    H7270    -3.43685   34.00338   12.99787
      H    H7271    -2.35381   33.08189   12.47851
      O    O7272    -5.75824   26.42130   22.56085
      H    H7273    -5.39016   25.60082   22.88880
      H    H7274    -6.61842   26.48149   22.97641
      O    O7275    -2.39204   25.37699   13.36960
      H    H7276    -3.02072   25.48156   12.65543
      H    H7277    -2.88685   25.59667   14.15899
      O    O7278    -7.94622   37.09755   10.80300
      H    H7279    -7.84503   36.89395    9.87320
      H    H7280    -8.84605   36.84338   11.00778
      O    O7281    -8.79804   29.07526   22.78464
      H    H7282    -8.29952   29.54984   23.44983
      H    H7283    -8.65575   28.15161   22.99165
      O    O7284    -6.39209   24.38065   16.22497
      H    H7285    -6.51531   24.39927   15.27592
      H    H7286    -5.44364   24.42855   16.34481
      O    O7287    -1.59136   25.29205   23.62748
      H    H7288    -2.09400   26.03259   23.96686
      H    H7289    -0.77569   25.68045   23.31116
      O    O7290    -3.29916   30.53537   17.07362
      H    H7291    -4.24014   30.55039   17.24839
      H    H7292    -2.98475   29.74897   17.51965
      O    O7293    -1.29660   37.70626   18.74904
      H    H7294    -1.17186   38.52937   19.22143
      H    H7295    -0.43004   37.49533   18.40146
      O    O7296    -5.98255   35.09197   27.55686
      H    H7297    -6.58874   35.11513   26.81643
      H    H7298    -6.28714   34.36027   28.09358
      O    O7299    -4.55252   38.82000   26.16780
      H    H7300    -3.60034   38.73580   26.11782
      H    H7301    -4.69969   39.48417   26.84118
      O    O7302    -1.66160   38.19942   11.66699
      H    H7303    -1.94745   37.78593   10.85241
      H    H7304    -1.85964   39.12819   11.54704
      O    O7305    -6.95660   33.25475   10.71175
      H    H7306    -7.50559   33.70168   11.35602
      H    H7307    -6.33467   32.74968   11.23552
      O    O7308    -2.90311   34.60896   26.64397
      H    H7309    -2.16216   34.94654   26.14072
      H    H7310    -3.66584   34.77817   26.09095
      O    O7311    -8.77632   31.23760    9.85599
      H    H7312    -8.25576   30.52251    9.49010
      H    H7313    -8.12948   31.87619   10.15604
      O    O7314    -4.22854   32.66044   25.17950
      H    H7315    -3.81444   32.81495   26.02854
      H    H7316    -5.16344   32.78597   25.34207
      O    O7317    -3.75632   30.00006   27.18341
      H    H7318    -3.17425   29.24529   27.09546
      H    H7319    -3.58015   30.53080   26.40656
      O    O7320    -7.13063   30.34411   24.53287
      H    H7321    -7.01101   29.74822   25.27236
      H    H7322    -6.27123   30.38108   24.11300
      O    O7323    -4.79184   30.89783   23.10912
      H    H7324    -5.31832   31.42209   22.50564
      H    H7325    -4.44870   31.53057   23.74010
      O    O7326    -5.54441   26.50283   26.02376
      H    H7327    -6.23286   25.84098   25.95876
      H    H7328    -4.82381   26.05665   26.46860
      O    O7329    -4.91437   23.09799   12.08278
      H    H7330    -4.63414   22.25478   12.43872
      H    H7331    -5.68779   23.33030   12.59666
      O    O7332    -8.76005   40.15291   24.52353
      H    H7333    -8.83418   41.05643   24.83076
      H    H7334    -9.66217   39.83410   24.49573
      O    O7335    -8.21152   39.31877   12.14616
      H    H7336    -7.31644   39.65726   12.16804
      H    H7337    -8.17976   38.59671   11.51859
      O    O7338    -1.23209   37.84913   24.85278
      H    H7339    -1.83189   37.90839   24.10917
      H    H7340    -1.10270   36.90963   24.98247
      O    O7341     0.00806   35.59091   10.18975
      H    H7342    -0.82265   35.65858   10.66048
      H    H7343     0.18524   36.48133    9.88644
      O    O7344    -0.53630   32.33566   12.69317
      H    H7345     0.22560   32.90533   12.79914
      H    H7346    -0.52086   31.76838   13.46400
      O    O7347     0.46970   33.19067   17.53737
      H    H7348     0.84058   32.40740   17.13096
      H    H7349     1.10989   33.87958   17.35910
      O    O7350    -2.54692   34.57433   22.95040
      H    H7351    -3.36094   35.00405   23.21298
      H    H7352    -2.13950   35.18617   22.33730
      O    O7353    -0.48438   32.62910    9.85043
      H    H7354    -0.20949   33.53699    9.72235
      H    H7355    -0.67330   32.56535   10.78662
      O    O7356    -4.08682   25.65358   11.14579
      H    H7357    -3.66833   25.46668   10.30545
      H    H7358    -4.39321   24.80149   11.45608
      O    O7359    -0.58784   30.56600   14.84337
      H    H7360    -0.96348   29.79879   14.41150
      H    H7361    -1.31753   30.94827   15.33086
      O    O7362    -1.19788   29.71315   24.47732
      H    H7363    -1.42927   29.48443   23.57712
      H    H7364    -0.93743   30.63311   24.43181
      O    O7365    -2.75908   24.93879   27.25529
      H    H7366    -1.88206   24.94713   27.63869
      H    H7367    -2.74699   24.20188   26.64453
      O    O7368    -1.31275   28.79175   18.14409
      H    H7369    -0.78900   28.29801   17.51311
      H    H7370    -0.72681   28.92678   18.88885
      O    O7371    -1.13378   28.87573   21.66605
      H    H7372    -2.08351   28.84209   21.78055
      H    H7373    -0.95248   29.78575   21.43102
      O    O7374    -1.82275   28.04908   14.08333
      H    H7375    -1.32684   27.81617   14.86822
      H    H7376    -2.02114   27.21027   13.66710
      O    O7377    -0.39404   26.68518   16.61710
      H    H7378    -0.50411   26.53078   17.55533
      H    H7379     0.36672   26.15727   16.37464
      O    O7380    -2.04746   22.62459   23.07540
      H    H7381    -1.41024   23.23800   23.44132
      H    H7382    -1.89997   22.66066   22.13032
      O    O7383     0.49499   24.51597    9.85772
      H    H7384     1.41992   24.38409    9.64954
      H    H7385     0.47257   24.59525   10.81136
      O    O7386     0.56884   25.28704   12.48339
      H    H7387    -0.22601   25.22155   13.01268
      H    H7388     0.77317   26.22210   12.47192
      O    O7389    -2.48932   39.32619   16.47723
      H    H7390    -1.89341   39.00465   15.80067
      H    H7391    -2.23150   38.85337   17.26855
      O    O7392    -8.67702   23.77721   25.98291
      H    H7393    -8.73813   24.36939   26.73245
      H    H7394    -7.73698   23.66981   25.83794
      O    O7395    -6.03956   23.43422   25.62214
      H    H7396    -5.42552   23.75214   24.96025
      H    H7397    -5.49460   22.94907   26.24173
      O    O7398     0.37796   39.33338   23.02832
      H    H7399    -0.11621   39.73027   22.31104
      H    H7400    -0.23071   38.70830   23.42205
      O    O7401    -5.29876   21.99743   21.94907
      H    H7402    -6.17277   22.33094   21.74636
      H    H7403    -5.40768   21.52475   22.77426
      O    O7404    -4.39156   24.20452   23.33324
      H    H7405    -4.72022   23.38969   22.95341
      H    H7406    -3.44333   24.16150   23.20981
      O    O7407    -1.93810   39.97572   20.30700
      H    H7408    -2.39780   40.72730   19.93280
      H    H7409    -2.56685   39.25637   20.24848
      O    O7410    -8.76897   39.17539   20.30871
      H    H7411    -8.48119   38.92082   19.43201
      H    H7412    -8.25665   38.62313   20.89927
      O    O7413    -7.55127   22.91441   20.88836
      H    H7414    -8.33409   23.38896   21.16804
      H    H7415    -7.84498   22.00990   20.77968
      O    O7416    -2.99917   23.61672   18.93327
      H    H7417    -2.55836   23.56123   18.08543
      H    H7418    -3.26841   24.53252   19.00429
      O    O7419    -1.13531   23.24825   16.94415
      H    H7420    -1.19647   22.30437   16.79725
      H    H7421    -0.35611   23.35626   17.48950
      O    O7422    -5.16335   21.99733   17.63827
      H    H7423    -4.56042   22.56935   18.11312
      H    H7424    -5.90405   22.56128   17.41566
      O    O7425    -2.01989   22.39949   12.91230
      H    H7426    -1.82483   23.29783   13.17904
      H    H7427    -2.80691   22.16820   13.40559
      O    O7428    -8.70174   40.09700   27.67553
      H    H7429    -7.77501   39.86143   27.71913
      H    H7430    -8.71670   40.92420   27.19413
      O    O7431    -0.46723   39.63956   14.67295
      H    H7432    -0.29201   38.95333   14.02905
      H    H7433    -1.16508   40.16427   14.28062
      O    O7434    -4.91383   22.17684   28.01776
      H    H7435    -5.02729   22.49630   28.91292
      H    H7436    -4.09686   22.57809   27.72149
      O    O7437    -2.13398   39.32399   27.49963
      H    H7438    -1.34145   38.82891   27.29223
      H    H7439    -1.84067   40.00300   28.10719
      O    O7440    12.76633   30.19608   17.15559
      H    H7441    12.68574   29.28154   16.88476
      H    H7442    12.35278   30.69279   16.44956
      O    O7443    10.89814   31.97399   19.03651
      H    H7444    10.12235   31.49403   19.32637
      H    H7445    11.54943   31.29455   18.86213
      O    O7446     4.91472   32.28597   19.91409
      H    H7447     4.08321   32.03084   20.31374
      H    H7448     5.52282   32.35704   20.64988
      O    O7449    14.91888   36.38000   17.81643
      H    H7450    14.45703   35.60873   18.14514
      H    H7451    15.73144   36.40661   18.32167
      O    O7452     4.89485   36.31998   20.10989
      H    H7453     5.19765   35.42975   19.93091
      H    H7454     5.63921   36.87700   19.88212
      O    O7455     3.32392   27.24616   13.69833
      H    H7456     2.43559   27.58775   13.59632
      H    H7457     3.60803   27.04619   12.80641
      O    O7458     1.28722   29.84672   19.58230
      H    H7459     1.85883   29.07894   19.58266
      H    H7460     1.28737   30.14560   18.67296
      O    O7461    11.14521   38.66581   17.43683
      H    H7462    10.52636   39.12156   16.86627
      H    H7463    12.00039   38.82095   17.03580
      O    O7464    10.33904   34.64970   19.04353
      H    H7465    10.26986   33.70870   18.88244
      H    H7466    11.10102   34.73985   19.61579
      O    O7467     2.52970   25.25516   21.36919
      H    H7468     2.34999   24.35773   21.64947
      H    H7469     2.12771   25.80234   22.04389
      O    O7470    11.36955   27.45674   19.27042
      H    H7471    11.74604   26.58393   19.15779
      H    H7472    11.27150   27.79261   18.37947
      O    O7473     5.50005   25.82931   14.73217
      H    H7474     5.60673   26.72968   15.03904
      H    H7475     4.58929   25.78110   14.44163
      O    O7476    15.15197   24.95179   16.20326
      H    H7477    15.97293   24.46144   16.24581
      H    H7478    15.18537   25.54155   16.95644
      O    O7479     3.14837   27.75121   19.97743
      H    H7480     3.82938   28.01504   20.59617
      H    H7481     2.83318   26.91129   20.31123
      O    O7482     7.34083   28.79794   19.06469
      H    H7483     7.84865   29.29604   19.70519
      H    H7484     7.87215   28.02146   18.88862
      O    O7485    19.44192   26.96846   22.76762
      H    H7486    18.73714   27.35663   22.24913
      H    H7487    19.70771   27.66349   23.36971
      O    O7488     5.62444   23.43780   23.33103
      H    H7489     5.62628   23.95504   22.52562
      H    H7490     4.79487   22.96082   23.30802
      O    O7491    12.01155   33.54973   14.83002
      H    H7492    11.39327   34.01467   14.26629
      H    H7493    12.52387   34.24248   15.24697
      O    O7494     6.87472   33.07732   21.50838
      H    H7495     6.54166   33.70421   22.15048
      H    H7496     7.05139   33.60350   20.72854
      O    O7497    15.38811   26.89182   18.97601
      H    H7498    14.68367   27.18031   19.55632
      H    H7499    15.74933   27.70184   18.61597
      O    O7500     5.30597   25.14879   21.33807
      H    H7501     5.64765   25.99300   21.04346
      H    H7502     4.36755   25.29717   21.45461
      O    O7503     6.08663   35.04540   23.32330
      H    H7504     6.70403   35.72050   23.04174
      H    H7505     5.22594   35.45419   23.23205
      O    O7506     1.37987   34.23538   12.20398
      H    H7507     1.00266   34.72409   11.47247
      H    H7508     1.63717   34.90791   12.83463
      O    O7509    17.00439   36.50934   21.23876
      H    H7510    16.32074   37.17925   21.23043
      H    H7511    17.54382   36.70740   20.47325
      O    O7512    18.45681   26.33730   19.36693
      H    H7513    17.50930   26.37120   19.49848
      H    H7514    18.78180   27.15120   19.75187
      O    O7515     8.98876   22.63702   17.66253
      H    H7516     9.29626   22.08171   16.94608
      H    H7517     8.05883   22.77147   17.47983
      O    O7518    14.54027   38.35375   19.95328
      H    H7519    14.55298   37.94998   19.08550
      H    H7520    13.98779   39.12848   19.84942
      O    O7521    15.83481   35.07537   15.04229
      H    H7522    15.72444   34.13281   15.16724
      H    H7523    15.83163   35.43694   15.92857
      O    O7524    13.93881   33.25673   21.28154
      H    H7525    14.35569   33.04275   20.44688
      H    H7526    14.66279   33.51401   21.85240
      O    O7527    11.37684   30.70190   14.39854
      H    H7528    10.44976   30.63564   14.62739
      H    H7529    11.52932   31.63992   14.28407
      O    O7530    11.36374   26.97360   11.39526
      H    H7531    10.42411   27.13500   11.48051
      H    H7532    11.68207   27.69217   10.84886
      O    O7533    17.88502   31.65546   21.37316
      H    H7534    17.05688   31.72477   20.89818
      H    H7535    18.48007   32.24089   20.90475
      O    O7536    15.40656   32.26393   14.90207
      H    H7537    14.78781   31.92589   14.25470
      H    H7538    15.38901   31.61991   15.60999
      O    O7539    14.84922   28.44239   22.31865
      H    H7540    14.43634   29.26776   22.57265
      H    H7541    14.11682   27.85689   22.12629
      O    O7542     6.98250   31.22838   17.18052
      H    H7543     6.57820   30.51610   16.68511
      H    H7544     7.06881   30.88370   18.06932
      O    O7545     7.45067   34.91513   19.34444
      H    H7546     7.15350   34.30968   18.66522
      H    H7547     8.40065   34.95287   19.23337
      O    O7548     5.69536   28.00270   20.96042
      H    H7549     6.24682   28.11223   20.18575
      H    H7550     6.20971   28.37646   21.67594
      O    O7551    15.53923   38.48832   23.00675
      H    H7552    15.06229   39.29554   22.81401
      H    H7553    14.85541   37.83615   23.15937
      O    O7554     6.54251   34.65330   25.99522
      H    H7555     5.64537   34.87730   26.24256
      H    H7556     6.56780   34.77680   25.04636
      O    O7557    13.58303   31.50262   11.90934
      H    H7558    14.02236   30.66486   11.76313
      H    H7559    14.29588   32.13556   11.99576
      O    O7560     5.36963   31.52464   24.57095
      H    H7561     5.23041   32.39692   24.93969
      H    H7562     4.48777   31.18192   24.42575
      O    O7563    11.69257   36.44222   15.87747
      H    H7564    12.13216   37.18466   15.46301
      H    H7565    11.63126   36.68488   16.80136
      O    O7566     7.16767   37.46681   26.77947
      H    H7567     7.13921   37.87110   25.91231
      H    H7568     7.00417   36.53784   26.61663
      O    O7569    17.16475   22.75690   10.22345
      H    H7570    16.85201   22.84958   11.12335
      H    H7571    17.92600   23.33500   10.17319
      O    O7572     3.68296   30.12288   14.68118
      H    H7573     3.56272   30.84909   14.06931
      H    H7574     3.37305   29.35317   14.20397
      O    O7575    19.11915   38.24952   28.07589
      H    H7576    19.59512   38.72780   28.75479
      H    H7577    19.73987   38.18126   27.35044
      O    O7578     1.32150   33.29439   20.48805
      H    H7579     1.39954   33.42927   19.54362
      H    H7580     1.93567   32.58598   20.68086
      O    O7581     2.56626   34.99441   16.89866
      H    H7582     2.15907   35.13587   16.04402
      H    H7583     3.45756   34.71043   16.69578
      O    O7584    18.52248   35.44080   25.23589
      H    H7585    18.64878   35.20199   24.31761
      H    H7586    18.56461   34.60925   25.70810
      O    O7587    12.38415   39.14360   23.80537
      H    H7588    12.89862   39.05440   24.60761
      H    H7589    11.54106   39.48957   24.09816
      O    O7590    14.35959   39.42913   13.23377
      H    H7591    14.19970   39.13943   14.13195
      H    H7592    14.19426   38.65315   12.69829
      O    O7593     6.83843   39.20899   15.01093
      H    H7594     6.66268   38.29254   14.79771
      H    H7595     5.98400   39.56772   15.25071
      O    O7596    14.06220   36.93789   11.79357
      H    H7597    13.36872   36.93562   11.13380
      H    H7598    14.80449   36.51382   11.36299
      O    O7599    13.62720   38.56416   15.86842
      H    H7600    14.08289   37.78310   16.18228
      H    H7601    13.96645   39.27484   16.41254
      O    O7602    18.37488   27.49405   26.20086
      H    H7603    17.75930   28.00201   25.67241
      H    H7604    18.05452   26.59388   26.14346
      O    O7605     1.37745   34.33581   23.02749
      H    H7606     1.54056   33.86634   22.20943
      H    H7607     1.84270   33.82816   23.69238
      O    O7608     6.14933   23.46638   18.06355
      H    H7609     5.70614   24.24734   17.73200
      H    H7610     6.70783   23.78937   18.77064
      O    O7611    10.43631   26.33324   23.66708
      H    H7612     9.97425   26.54154   24.47907
      H    H7613    10.03412   25.51917   23.36415
      O    O7614    15.43676   27.55413   24.79675
      H    H7615    14.58612   27.25471   25.11765
      H    H7616    15.27694   27.79833   23.88513
      O    O7617    12.53173   29.05431   26.89663
      H    H7618    12.85707   28.22068   26.55685
      H    H7619    13.31976   29.57716   27.04446
      O    O7620     9.26521   23.08745   12.94413
      H    H7621     8.64063   23.08344   13.66946
      H    H7622     9.17822   22.22055   12.54773
      O    O7623     8.18692   24.01112   19.92251
      H    H7624     8.48415   24.91740   19.84171
      H    H7625     8.73547   23.52299   19.30847
      O    O7626     5.94075   28.58974   15.79167
      H    H7627     5.71484   28.37346   16.69634
      H    H7628     5.16000   29.02259   15.44627
      O    O7629    13.17053   28.59608   14.39074
      H    H7630    12.57142   29.31966   14.20710
      H    H7631    13.71849   28.53376   13.60838
      O    O7632     8.38067   29.48830   26.45770
      H    H7633     8.28503   28.54777   26.30774
      H    H7634     9.22387   29.70981   26.06251
      O    O7635    11.77701   27.23243   16.42107
      H    H7636    12.16997   27.54965   15.60794
      H    H7637    12.13870   26.35362   16.53552
      O    O7638     3.51173   25.89967   24.61108
      H    H7639     3.11806   26.74719   24.81836
      H    H7640     2.82357   25.26230   24.80194
      O    O7641    10.08623   25.98316   27.68075
      H    H7642     9.39606   25.79038   28.31536
      H    H7643    10.82946   26.26663   28.21318
      O    O7644     0.81343   23.82251   18.64409
      H    H7645     0.52474   24.39280   19.35658
      H    H7646     1.55801   23.34296   19.00721
      O    O7647     1.00045   27.76452    9.85436
      H    H7648     0.91792   28.70760    9.99586
      H    H7649     0.64876   27.62201    8.97559
      O    O7650    12.36253   29.82301   20.51614
      H    H7651    11.63064   30.33169   20.86515
      H    H7652    11.96496   29.00600   20.21502
      O    O7653     8.80027   26.49843   18.92139
      H    H7654     8.80387   26.05742   18.07185
      H    H7655     9.69538   26.82016   19.02858
      O    O7656     4.65050   26.38108   17.88081
      H    H7657     4.31051   26.85860   18.63752
      H    H7658     3.88824   25.92759   17.52092
      O    O7659     8.86228   27.49963   11.91207
      H    H7660     8.98356   27.45828   12.86065
      H    H7661     8.47713   28.36205   11.75674
      O    O7662    12.82512   25.27637   19.92844
      H    H7663    12.84239   25.72724   20.77262
      H    H7664    12.57668   24.37694   20.14178
      O    O7665     7.87443   29.80975   11.31040
      H    H7666     7.30612   29.36157   10.68399
      H    H7667     8.58333   30.16903   10.77691
      O    O7668    16.25219   22.68959   25.76708
      H    H7669    16.57677   21.95856   26.29287
      H    H7670    16.28784   22.37096   24.86518
      O    O7671     2.95135   33.71095   25.18707
      H    H7672     2.56683   33.07032   25.78537
      H    H7673     3.26257   34.41456   25.75655
      O    O7674     9.10106   30.55860   20.66793
      H    H7675     9.46808   30.08446   21.41407
      H    H7676     8.91157   31.43276   21.00877
      O    O7677     1.96511   25.30297   16.79728
      H    H7678     1.67980   24.93854   17.63514
      H    H7679     1.90300   24.57102   16.18360
      O    O7680     6.89100   29.59947   22.98636
      H    H7681     6.58671   30.47867   23.21139
      H    H7682     7.84565   29.65945   23.02210
      O    O7683     5.41918   33.80557   13.58304
      H    H7684     4.64541   33.26533   13.42291
      H    H7685     6.14864   33.28623   13.24482
      O    O7686    16.17798   32.80210   19.37568
      H    H7687    16.89789   33.29763   18.98529
      H    H7688    15.97616   32.12389   18.73107
      O    O7689    11.63897   24.19590   13.51862
      H    H7690    10.82543   23.69722   13.44315
      H    H7691    11.44517   25.03572   13.10225
      O    O7692    11.55986   32.87301   25.26258
      H    H7693    11.49359   31.95258   25.00834
      H    H7694    10.93037   32.97055   25.97704
      O    O7695    14.35381   28.56786   11.81483
      H    H7696    15.24177   28.87959   11.63997
      H    H7697    14.32432   27.69509   11.42289
      O    O7698     5.46292   33.47361   17.22092
      H    H7699     5.98079   32.67043   17.16661
      H    H7700     5.01132   33.41152   18.06260
      O    O7701    10.34987   34.74023   12.49365
      H    H7702    10.69144   35.48446   11.99798
      H    H7703     9.52114   35.05335   12.85613
      O    O7704     2.94737   30.43974   24.13349
      H    H7705     2.58887   31.10513   24.72083
      H    H7706     2.65283   29.60810   24.50475
      O    O7707     6.14869   30.89817   27.01745
      H    H7708     5.84870   31.04388   26.12023
      H    H7709     6.91981   30.33870   26.92479
      O    O7710    11.49153   35.69507   25.01296
      H    H7711    11.50598   34.76316   24.79485
      H    H7712    10.78404   35.78104   25.65194
      O    O7713    16.62524   29.87905   11.28282
      H    H7714    16.54161   30.31047   10.43246
      H    H7715    17.34466   30.33888   11.71550
      O    O7716    17.70265   32.33580   24.35982
      H    H7717    16.97747   32.92868   24.16276
      H    H7718    18.23020   32.32815   23.56115
      O    O7719    17.65396   36.73327   14.01103
      H    H7720    17.01158   36.07884   14.28541
      H    H7721    17.26703   37.13878   13.23510
      O    O7722    13.23261   34.06182   17.85820
      H    H7723    13.58499   33.46463   17.19834
      H    H7724    12.34884   33.73624   18.02903
      O    O7725     9.31894   34.82159   15.26524
      H    H7726    10.00605   35.36851   15.64600
      H    H7727     8.53218   35.36566   15.30020
      O    O7728     1.45818   30.43887   10.75695
      H    H7729     2.32766   30.72135   11.04054
      H    H7730     0.96721   31.25246   10.64183
      O    O7731     8.62166   31.82619   14.87778
      H    H7732     9.07794   32.63671   15.10380
      H    H7733     8.27048   31.50850   15.70963
      O    O7734    10.92492   37.33682   22.10701
      H    H7735    11.56914   37.54276   22.78435
      H    H7736    11.28786   36.57566   21.65409
      O    O7737     4.52284   22.16995   15.35003
      H    H7738     4.39430   22.16174   16.29852
      H    H7739     3.69904   22.50826   14.99913
      O    O7740    12.19813   35.34006   20.82475
      H    H7741    12.84035   34.63937   20.93797
      H    H7742    12.72306   36.11990   20.64444
      O    O7743    16.04370   35.62492   10.54867
      H    H7744    15.81746   34.90796   11.14113
      H    H7745    15.65332   35.37616    9.71084
      O    O7746    13.97189   36.13955   24.02836
      H    H7747    14.30751   36.72622   24.70615
      H    H7748    13.05192   36.00882   24.25814
      O    O7749     1.82530   39.65161   11.32311
      H    H7750     2.18507   40.25054   10.66884
      H    H7751     1.68454   40.19760   12.09662
      O    O7752     1.52223   23.92907   24.81070
      H    H7753     0.80808   24.12876   25.41596
      H    H7754     1.94173   23.15302   25.18218
      O    O7755    15.62533   33.54211   12.21008
      H    H7756    15.33750   34.00338   12.99787
      H    H7757    16.42054   33.08189   12.47851
      O    O7758     1.80949   37.91709   25.79735
      H    H7759     1.91860   36.97657   25.65689
      H    H7760     1.15755   38.18257   25.14873
      O    O7761     9.80075   36.18868   27.19717
      H    H7762     9.48044   35.46961   27.74174
      H    H7763     9.12658   36.86419   27.27077
      O    O7764     7.84217   37.03473   12.14048
      H    H7765     7.83318   37.76770   11.52493
      H    H7766     6.92200   36.78788   12.23318
      O    O7767     3.44283   32.25622   12.88516
      H    H7768     2.83562   32.99611   12.89469
      H    H7769     3.91776   32.34615   12.05898
      O    O7770    13.01611   26.42130   22.56085
      H    H7771    13.38419   25.60082   22.88880
      H    H7772    12.15593   26.48149   22.97641
      O    O7773    16.38231   25.37699   13.36960
      H    H7774    15.75363   25.48156   12.65543
      H    H7775    15.88750   25.59667   14.15899
      O    O7776    10.82813   37.09755   10.80300
      H    H7777    10.92932   36.89395    9.87320
      H    H7778     9.92830   36.84338   11.00778
      O    O7779     8.35071   27.65559   14.78539
      H    H7780     7.64233   28.12422   15.22675
      H    H7781     8.63516   26.99779   15.41991
      O    O7782     9.97631   29.07526   22.78464
      H    H7783    10.47483   29.54984   23.44983
      H    H7784    10.11860   28.15161   22.99165
      O    O7785    12.38226   24.38065   16.22497
      H    H7786    12.25904   24.39927   15.27592
      H    H7787    13.33071   24.42855   16.34481
      O    O7788     9.46994   39.61618   15.49777
      H    H7789     9.72409   39.57832   14.57570
      H    H7790     8.52118   39.48952   15.49059
      O    O7791     6.55422   25.96409   12.16046
      H    H7792     7.40327   26.40111   12.09448
      H    H7793     6.18734   26.27612   12.98767
      O    O7794    17.18299   25.29205   23.62748
      H    H7795    16.68035   26.03259   23.96686
      H    H7796    17.99866   25.68045   23.31116
      O    O7797    15.47519   30.53537   17.07362
      H    H7798    14.53421   30.55039   17.24839
      H    H7799    15.78960   29.74897   17.51965
      O    O7800     5.45336   32.21733   10.63401
      H    H7801     6.21969   32.10547   11.19656
      H    H7802     5.53083   31.52113    9.98169
      O    O7803     4.14803   29.64984   11.31730
      H    H7804     4.22839   28.70259   11.42904
      H    H7805     5.04001   29.98053   11.42337
      O    O7806    17.47775   37.70626   18.74904
      H    H7807    17.60249   38.52937   19.22143
      H    H7808    18.34431   37.49533   18.40146
      O    O7809     4.94951   39.79938   18.42076
      H    H7810     5.68575   39.25092   18.69161
      H    H7811     5.33360   40.66498   18.28136
      O    O7812     1.83405   35.86673   14.29491
      H    H7813     0.90803   36.10885   14.28545
      H    H7814     2.29970   36.69416   14.17338
      O    O7815     3.95533   38.98398   27.60932
      H    H7816     4.75661   39.30519   28.02286
      H    H7817     3.44052   38.62354   28.33131
      O    O7818     8.05974   38.97241   10.24331
      H    H7819     8.85260   39.26129    9.79149
      H    H7820     7.54017   38.54162    9.56456
      O    O7821    12.79180   35.09197   27.55686
      H    H7822    12.18561   35.11513   26.81643
      H    H7823    12.48721   34.36027   28.09358
      O    O7824    14.22183   38.82000   26.16780
      H    H7825    15.17401   38.73580   26.11782
      H    H7826    14.07466   39.48417   26.84118
      O    O7827    17.11275   38.19942   11.66699
      H    H7828    16.82690   37.78593   10.85241
      H    H7829    16.91471   39.12819   11.54704
      O    O7830     1.67511   31.47133   26.55292
      H    H7831     2.17902   30.89206   27.12454
      H    H7832     0.93586   31.75535   27.09056
      O    O7833     8.57748   34.19275   10.10755
      H    H7834     8.47254   33.57798   10.83369
      H    H7835     8.40990   33.66934    9.32385
      O    O7836     8.72891   32.87843   26.08647
      H    H7837     7.96348   33.44693   26.00194
      H    H7838     8.91050   32.58605   25.19330
      O    O7839    11.81775   33.25475   10.71175
      H    H7840    11.26876   33.70168   11.35602
      H    H7841    12.43968   32.74968   11.23552
      O    O7842    15.87124   34.60896   26.64397
      H    H7843    16.61219   34.94654   26.14072
      H    H7844    15.10851   34.77817   26.09095
      O    O7845     3.70742   29.61429   27.44793
      H    H7846     3.74796   29.31568   28.35645
      H    H7847     4.56197   30.01505   27.28868
      O    O7848     7.48526   32.21384   12.60828
      H    H7849     7.90690   32.04783   13.45142
      H    H7850     7.61035   31.40387   12.11379
      O    O7851     5.64800   28.19350   25.41538
      H    H7852     5.11765   27.70259   24.78771
      H    H7853     6.31681   28.62192   24.88117
      O    O7854     9.99803   31.23760    9.85599
      H    H7855    10.51859   30.52251    9.49010
      H    H7856    10.64487   31.87619   10.15604
      O    O7857    14.54581   32.66044   25.17950
      H    H7858    14.95991   32.81495   26.02854
      H    H7859    13.61091   32.78597   25.34207
      O    O7860    15.01803   30.00006   27.18341
      H    H7861    15.60010   29.24529   27.09546
      H    H7862    15.19420   30.53080   26.40656
      O    O7863     6.13523   25.15974   25.49511
      H    H7864     6.04092   24.54181   24.77019
      H    H7865     5.55497   25.88636   25.26810
      O    O7866     8.90138   23.71706   22.52784
      H    H7867     8.45311   23.73949   21.68240
      H    H7868     8.26790   23.31896   23.12487
      O    O7869     9.30733   32.61249   23.14909
      H    H7870     9.72614   33.45577   22.97671
      H    H7871     8.38820   32.74970   22.91977
      O    O7872    11.64372   30.34411   24.53287
      H    H7873    11.76334   29.74822   25.27236
      H    H7874    12.50312   30.38108   24.11300
      O    O7875    13.98251   30.89783   23.10912
      H    H7876    13.45603   31.42209   22.50564
      H    H7877    14.32565   31.53057   23.74010
      O    O7878     6.38115   28.28717    9.55409
      H    H7879     6.18006   27.42390    9.91543
      H    H7880     6.21036   28.20050    8.61625
      O    O7881     7.15807   38.91779   24.26486
      H    H7882     6.62018   39.64240   23.94573
      H    H7883     7.41147   38.44083   23.47460
      O    O7884     8.41060   26.88625   25.79045
      H    H7885     9.00057   26.57783   26.47824
      H    H7886     7.59262   26.41422   25.94644
      O    O7887    13.22994   26.50283   26.02376
      H    H7888    12.54149   25.84098   25.95876
      H    H7889    13.95054   26.05665   26.46860
      O    O7890    13.85998   23.09799   12.08278
      H    H7891    14.14021   22.25478   12.43872
      H    H7892    13.08656   23.33030   12.59666
      O    O7893     5.17943   25.38723    9.54188
      H    H7894     5.48202   25.39397    8.63380
      H    H7895     5.91889   25.03701   10.03865
      O    O7896    10.01430   40.15291   24.52353
      H    H7897     9.94017   41.05643   24.83076
      H    H7898     9.11218   39.83410   24.49573
      O    O7899     8.39792   24.33069   10.52750
      H    H7900     8.05012   23.65309    9.94775
      H    H7901     8.59920   23.86964   11.34184
      O    O7902    10.56283   39.31877   12.14616
      H    H7903    11.45791   39.65726   12.16804
      H    H7904    10.59459   38.59671   11.51859
      O    O7905     4.20244   34.69147   10.37486
      H    H7906     4.63993   35.23444   11.03062
      H    H7907     4.68722   33.86617   10.38450
      O    O7908     1.41702   37.48037   17.82689
      H    H7909     1.74733   36.61248   17.59475
      H    H7910     1.84612   37.68623   18.65738
      O    O7911     6.01322   35.81127   15.48709
      H    H7912     5.71277   35.68777   16.38748
      H    H7913     5.90697   34.95213   15.07866
      O    O7914     1.90605   38.34743   20.56505
      H    H7915     1.46914   38.52751   21.39747
      H    H7916     2.47381   39.10489   20.42322
      O    O7917    17.54226   37.84913   24.85278
      H    H7918    16.94246   37.90839   24.10917
      H    H7919    17.67165   36.90963   24.98247
      O    O7920    18.78241   35.59091   10.18975
      H    H7921    17.95170   35.65858   10.66048
      H    H7922    18.95959   36.48133    9.88644
      O    O7923    18.23805   32.33566   12.69317
      H    H7924    18.99995   32.90533   12.79914
      H    H7925    18.25349   31.76838   13.46400
      O    O7926     1.73849   30.85946   16.92394
      H    H7927     1.08337   30.59062   16.27991
      H    H7928     2.57628   30.74990   16.47414
      O    O7929    19.24405   33.19067   17.53737
      H    H7930    19.61493   32.40740   17.13096
      H    H7931    19.88424   33.87958   17.35910
      O    O7932    16.22743   34.57433   22.95040
      H    H7933    15.41341   35.00405   23.21298
      H    H7934    16.63485   35.18617   22.33730
      O    O7935    18.28997   32.62910    9.85043
      H    H7936    18.56486   33.53699    9.72235
      H    H7937    18.10105   32.56535   10.78662
      O    O7938    14.68753   25.65358   11.14579
      H    H7939    15.10602   25.46668   10.30545
      H    H7940    14.38114   24.80149   11.45608
      O    O7941    18.18651   30.56600   14.84337
      H    H7942    17.81087   29.79879   14.41150
      H    H7943    17.45682   30.94827   15.33086
      O    O7944     2.77608   31.24471   21.46427
      H    H7945     3.14339   31.15745   22.34388
      H    H7946     2.20716   30.48137   21.36496
      O    O7947    17.57647   29.71315   24.47732
      H    H7948    17.34508   29.48443   23.57712
      H    H7949    17.83692   30.63311   24.43181
      O    O7950     2.32768   28.15562   25.37012
      H    H7951     1.43329   28.12230   25.70949
      H    H7952     2.86744   28.35430   26.13524
      O    O7953    16.01527   24.93879   27.25529
      H    H7954    16.89229   24.94713   27.63869
      H    H7955    16.02736   24.20188   26.64453
      O    O7956     0.95230   28.06935   12.86647
      H    H7957     0.04870   28.33237   12.69164
      H    H7958     1.43636   28.34047   12.08647
      O    O7959    17.46160   28.79175   18.14409
      H    H7960    17.98535   28.29801   17.51311
      H    H7961    18.04754   28.92678   18.88885
      O    O7962    17.64057   28.87573   21.66605
      H    H7963    16.69084   28.84209   21.78055
      H    H7964    17.82187   29.78575   21.43102
      O    O7965     3.49502   27.12590   10.77591
      H    H7966     4.20419   26.70422   10.29064
      H    H7967     2.77901   27.19343   10.14425
      O    O7968     3.14243   23.17984    9.81618
      H    H7969     3.86525   23.72073   10.13430
      H    H7970     3.41489   22.90618    8.94033
      O    O7971    16.95160   28.04908   14.08333
      H    H7972    17.44751   27.81617   14.86822
      H    H7973    16.75321   27.21027   13.66710
      O    O7974     2.83165   22.43045   19.71844
      H    H7975     3.47927   21.88019   19.27795
      H    H7976     3.25184   22.68477   20.54002
      O    O7977    18.38031   26.68518   16.61710
      H    H7978    18.27024   26.53078   17.55533
      H    H7979    19.14107   26.15727   16.37464
      O    O7980    16.72689   22.62459   23.07540
      H    H7981    17.36411   23.23800   23.44132
      H    H7982    16.87438   22.66066   22.13032
      O    O7983    19.26934   24.51597    9.85772
      H    H7984    20.19427   24.38409    9.64954
      H    H7985    19.24692   24.59525   10.81136
      O    O7986    19.34319   25.28704   12.48339
      H    H7987    18.54834   25.22155   13.01268
      H    H7988    19.54752   26.22210   12.47192
      O    O7989    16.28503   39.32619   16.47723
      H    H7990    16.88094   39.00465   15.80067
      H    H7991    16.54285   38.85337   17.26855
      O    O7992     2.58485   22.58602   22.46097
      H    H7993     2.23633   23.04240   23.22679
      H    H7994     2.25362   21.69173   22.54321
      O    O7995     4.19129   35.75798   26.62629
      H    H7996     4.14825   35.38727   27.50773
      H    H7997     4.32239   36.69574   26.76647
      O    O7998     7.89189   37.31394   22.22726
      H    H7999     7.65103   37.58140   21.34031
      H    H8000     8.83216   37.48451   22.28235
      O    O8001    10.09733   23.77721   25.98291
      H    H8002    10.03622   24.36939   26.73245
      H    H8003    11.03737   23.66981   25.83794
      O    O8004    12.73479   23.43422   25.62214
      H    H8005    13.34883   23.75214   24.96025
      H    H8006    13.27975   22.94907   26.24173
      O    O8007    19.15231   39.33338   23.02832
      H    H8008    18.65814   39.73027   22.31104
      H    H8009    18.54364   38.70830   23.42205
      O    O8010     3.25692   22.11364   25.73605
      H    H8011     3.80522   21.93245   24.97266
      H    H8012     3.32245   21.32305   26.27168
      O    O8013     4.03009   38.70421   23.74607
      H    H8014     3.43612   38.57268   24.48507
      H    H8015     4.02248   37.86802   23.28028
      O    O8016    13.47559   21.99743   21.94907
      H    H8017    12.60158   22.33094   21.74636
      H    H8018    13.36667   21.52475   22.77426
      O    O8019    14.38279   24.20452   23.33324
      H    H8020    14.05413   23.38969   22.95341
      H    H8021    15.33102   24.16150   23.20981
      O    O8022    16.83625   39.97572   20.30700
      H    H8023    16.37655   40.72730   19.93280
      H    H8024    16.20750   39.25637   20.24848
      O    O8025     3.66132   36.07004   22.69687
      H    H8026     2.93472   35.45057   22.62947
      H    H8027     3.72223   36.46411   21.82668
      O    O8028     7.26583   38.28454   19.48181
      H    H8029     7.78233   37.67328   18.95664
      H    H8030     7.91556   38.78742   19.97291
      O    O8031    10.00538   39.17539   20.30871
      H    H8032    10.29316   38.92082   19.43201
      H    H8033    10.51770   38.62313   20.89927
      O    O8034    11.22308   22.91441   20.88836
      H    H8035    10.44026   23.38896   21.16804
      H    H8036    10.92937   22.00990   20.77968
      O    O8037    15.77518   23.61672   18.93327
      H    H8038    16.21599   23.56123   18.08543
      H    H8039    15.50594   24.53252   19.00429
      O    O8040    17.63904   23.24825   16.94415
      H    H8041    17.57788   22.30437   16.79725
      H    H8042    18.41824   23.35626   17.48950
      O    O8043     1.94432   39.38748   15.90655
      H    H8044     1.77652   38.75455   16.60474
      H    H8045     1.07777   39.59342   15.55597
      O    O8046     2.56712   23.21916   13.40973
      H    H8047     3.32505   23.33205   12.83614
      H    H8048     2.10483   24.05608   13.36408
      O    O8049     9.10850   25.33309   16.39996
      H    H8050     8.29595   24.95878   16.05955
      H    H8051     9.61266   24.57760   16.70208
      O    O8052    13.61100   21.99733   17.63827
      H    H8053    14.21393   22.56935   18.11312
      H    H8054    12.87030   22.56128   17.41566
      O    O8055    16.75446   22.39949   12.91230
      H    H8056    16.94952   23.29783   13.17904
      H    H8057    15.96744   22.16820   13.40559
      O    O8058     3.55059   38.08081   13.35156
      H    H8059     3.02535   38.46161   12.64776
      H    H8060     3.47504   38.70588   14.07253
      O    O8061     4.93963   23.74557   11.94993
      H    H8062     5.46891   22.95855   11.82072
      H    H8063     5.57246   24.42469   12.18348
      O    O8064     7.13342   23.48308   15.00447
      H    H8065     6.50369   22.78181   15.17148
      H    H8066     6.59393   24.24349   14.78778
      O    O8067    10.07261   40.09700   27.67553
      H    H8068    10.99934   39.86143   27.71913
      H    H8069    10.05765   40.92420   27.19413
      O    O8070    18.30712   39.63956   14.67295
      H    H8071    18.48234   38.95333   14.02905
      H    H8072    17.60927   40.16427   14.28062
      O    O8073     7.25897   22.76148   27.43972
      H    H8074     6.97740   23.26484   26.67580
      H    H8075     7.64094   21.96365   27.07393
      O    O8076     6.14988   40.02904   12.22649
      H    H8077     6.88176   39.74497   11.67887
      H    H8078     6.40925   39.79037   13.11642
      O    O8079     5.31136   36.14552   12.23112
      H    H8080     4.68225   36.61403   12.77970
      H    H8081     5.42614   35.30044   12.66574
      O    O8082    13.86052   22.17684   28.01776
      H    H8083    13.74706   22.49630   28.91292
      H    H8084    14.67749   22.57809   27.72149
      O    O8085    16.64037   39.32399   27.49963
      H    H8086    17.43290   38.82891   27.29223
      H    H8087    16.93368   40.00300   28.10719
      O    O8088    31.54068   30.19608   17.15559
      H    H8089    31.46009   29.28154   16.88476
      H    H8090    31.12713   30.69279   16.44956
      O    O8091    29.67249   31.97399   19.03651
      H    H8092    28.89670   31.49403   19.32637
      H    H8093    30.32378   31.29455   18.86213
      O    O8094    23.68907   32.28597   19.91409
      H    H8095    22.85756   32.03084   20.31374
      H    H8096    24.29717   32.35704   20.64988
      O    O8097    33.69323   36.38000   17.81643
      H    H8098    33.23138   35.60873   18.14514
      H    H8099    34.50579   36.40661   18.32167
      O    O8100    23.66920   36.31998   20.10989
      H    H8101    23.97200   35.42975   19.93091
      H    H8102    24.41356   36.87700   19.88212
      O    O8103    22.09827   27.24616   13.69833
      H    H8104    21.20994   27.58775   13.59632
      H    H8105    22.38238   27.04619   12.80641
      O    O8106    20.06157   29.84672   19.58230
      H    H8107    20.63318   29.07894   19.58266
      H    H8108    20.06172   30.14560   18.67296
      O    O8109    29.91956   38.66581   17.43683
      H    H8110    29.30071   39.12156   16.86627
      H    H8111    30.77474   38.82095   17.03580
      O    O8112    29.11339   34.64970   19.04353
      H    H8113    29.04421   33.70870   18.88244
      H    H8114    29.87537   34.73985   19.61579
      O    O8115    21.30405   25.25516   21.36919
      H    H8116    21.12434   24.35773   21.64947
      H    H8117    20.90206   25.80234   22.04389
      O    O8118    30.14390   27.45674   19.27042
      H    H8119    30.52039   26.58393   19.15779
      H    H8120    30.04585   27.79261   18.37947
      O    O8121    24.27440   25.82931   14.73217
      H    H8122    24.38108   26.72968   15.03904
      H    H8123    23.36364   25.78110   14.44163
      O    O8124    33.92632   24.95179   16.20326
      H    H8125    34.74728   24.46144   16.24581
      H    H8126    33.95972   25.54155   16.95644
      O    O8127    21.92272   27.75121   19.97743
      H    H8128    22.60373   28.01504   20.59617
      H    H8129    21.60753   26.91129   20.31123
      O    O8130    26.11518   28.79794   19.06469
      H    H8131    26.62300   29.29604   19.70519
      H    H8132    26.64650   28.02146   18.88862
      O    O8133    38.21627   26.96846   22.76762
      H    H8134    37.51149   27.35663   22.24913
      H    H8135    38.48206   27.66349   23.36971
      O    O8136    24.39879   23.43780   23.33103
      H    H8137    24.40063   23.95504   22.52562
      H    H8138    23.56922   22.96082   23.30802
      O    O8139    30.78590   33.54973   14.83002
      H    H8140    30.16762   34.01467   14.26629
      H    H8141    31.29822   34.24248   15.24697
      O    O8142    25.64907   33.07732   21.50838
      H    H8143    25.31601   33.70421   22.15048
      H    H8144    25.82574   33.60350   20.72854
      O    O8145    34.16246   26.89182   18.97601
      H    H8146    33.45802   27.18031   19.55632
      H    H8147    34.52368   27.70184   18.61597
      O    O8148    24.08032   25.14879   21.33807
      H    H8149    24.42200   25.99300   21.04346
      H    H8150    23.14190   25.29717   21.45461
      O    O8151    24.86098   35.04540   23.32330
      H    H8152    25.47838   35.72050   23.04174
      H    H8153    24.00029   35.45419   23.23205
      O    O8154    20.15422   34.23538   12.20398
      H    H8155    19.77701   34.72409   11.47247
      H    H8156    20.41152   34.90791   12.83463
      O    O8157    35.77874   36.50934   21.23876
      H    H8158    35.09509   37.17925   21.23043
      H    H8159    36.31817   36.70740   20.47325
      O    O8160    37.23116   26.33730   19.36693
      H    H8161    36.28365   26.37120   19.49848
      H    H8162    37.55615   27.15120   19.75187
      O    O8163    27.76311   22.63702   17.66253
      H    H8164    28.07061   22.08171   16.94608
      H    H8165    26.83318   22.77147   17.47983
      O    O8166    33.31462   38.35375   19.95328
      H    H8167    33.32733   37.94998   19.08550
      H    H8168    32.76214   39.12848   19.84942
      O    O8169    34.60916   35.07537   15.04229
      H    H8170    34.49879   34.13281   15.16724
      H    H8171    34.60598   35.43694   15.92857
      O    O8172    32.71316   33.25673   21.28154
      H    H8173    33.13004   33.04275   20.44688
      H    H8174    33.43714   33.51401   21.85240
      O    O8175    30.15119   30.70190   14.39854
      H    H8176    29.22411   30.63564   14.62739
      H    H8177    30.30367   31.63992   14.28407
      O    O8178    30.13809   26.97360   11.39526
      H    H8179    29.19846   27.13500   11.48051
      H    H8180    30.45642   27.69217   10.84886
      O    O8181    36.65937   31.65546   21.37316
      H    H8182    35.83123   31.72477   20.89818
      H    H8183    37.25442   32.24089   20.90475
      O    O8184    34.18091   32.26393   14.90207
      H    H8185    33.56216   31.92589   14.25470
      H    H8186    34.16336   31.61991   15.60999
      O    O8187    33.62357   28.44239   22.31865
      H    H8188    33.21069   29.26776   22.57265
      H    H8189    32.89117   27.85689   22.12629
      O    O8190    25.75685   31.22838   17.18052
      H    H8191    25.35255   30.51610   16.68511
      H    H8192    25.84316   30.88370   18.06932
      O    O8193    26.22502   34.91513   19.34444
      H    H8194    25.92785   34.30968   18.66522
      H    H8195    27.17500   34.95287   19.23337
      O    O8196    24.46971   28.00270   20.96042
      H    H8197    25.02117   28.11223   20.18575
      H    H8198    24.98406   28.37646   21.67594
      O    O8199    34.31358   38.48832   23.00675
      H    H8200    33.83664   39.29554   22.81401
      H    H8201    33.62976   37.83615   23.15937
      O    O8202    25.31686   34.65330   25.99522
      H    H8203    24.41972   34.87730   26.24256
      H    H8204    25.34215   34.77680   25.04636
      O    O8205    32.35738   31.50262   11.90934
      H    H8206    32.79671   30.66486   11.76313
      H    H8207    33.07023   32.13556   11.99576
      O    O8208    24.14398   31.52464   24.57095
      H    H8209    24.00476   32.39692   24.93969
      H    H8210    23.26212   31.18192   24.42575
      O    O8211    30.46692   36.44222   15.87747
      H    H8212    30.90651   37.18466   15.46301
      H    H8213    30.40561   36.68488   16.80136
      O    O8214    25.94202   37.46681   26.77947
      H    H8215    25.91356   37.87110   25.91231
      H    H8216    25.77852   36.53784   26.61663
      O    O8217    35.93910   22.75690   10.22345
      H    H8218    35.62636   22.84958   11.12335
      H    H8219    36.70035   23.33500   10.17319
      O    O8220    22.45731   30.12288   14.68118
      H    H8221    22.33707   30.84909   14.06931
      H    H8222    22.14740   29.35317   14.20397
      O    O8223    37.89350   38.24952   28.07589
      H    H8224    38.36947   38.72780   28.75479
      H    H8225    38.51422   38.18126   27.35044
      O    O8226    20.09585   33.29439   20.48805
      H    H8227    20.17389   33.42927   19.54362
      H    H8228    20.71002   32.58598   20.68086
      O    O8229    21.34061   34.99441   16.89866
      H    H8230    20.93342   35.13587   16.04402
      H    H8231    22.23191   34.71043   16.69578
      O    O8232    37.29683   35.44080   25.23589
      H    H8233    37.42313   35.20199   24.31761
      H    H8234    37.33896   34.60925   25.70810
      O    O8235    31.15850   39.14360   23.80537
      H    H8236    31.67297   39.05440   24.60761
      H    H8237    30.31541   39.48957   24.09816
      O    O8238    33.13394   39.42913   13.23377
      H    H8239    32.97405   39.13943   14.13195
      H    H8240    32.96861   38.65315   12.69829
      O    O8241    25.61278   39.20899   15.01093
      H    H8242    25.43703   38.29254   14.79771
      H    H8243    24.75835   39.56772   15.25071
      O    O8244    32.83655   36.93789   11.79357
      H    H8245    32.14307   36.93562   11.13380
      H    H8246    33.57884   36.51382   11.36299
      O    O8247    32.40155   38.56416   15.86842
      H    H8248    32.85724   37.78310   16.18228
      H    H8249    32.74080   39.27484   16.41254
      O    O8250    37.14923   27.49405   26.20086
      H    H8251    36.53365   28.00201   25.67241
      H    H8252    36.82887   26.59388   26.14346
      O    O8253    20.15180   34.33581   23.02749
      H    H8254    20.31491   33.86634   22.20943
      H    H8255    20.61705   33.82816   23.69238
      O    O8256    24.92368   23.46638   18.06355
      H    H8257    24.48049   24.24734   17.73200
      H    H8258    25.48218   23.78937   18.77064
      O    O8259    29.21066   26.33324   23.66708
      H    H8260    28.74860   26.54154   24.47907
      H    H8261    28.80847   25.51917   23.36415
      O    O8262    34.21111   27.55413   24.79675
      H    H8263    33.36047   27.25471   25.11765
      H    H8264    34.05129   27.79833   23.88513
      O    O8265    31.30608   29.05431   26.89663
      H    H8266    31.63142   28.22068   26.55685
      H    H8267    32.09411   29.57716   27.04446
      O    O8268    28.03956   23.08745   12.94413
      H    H8269    27.41498   23.08344   13.66946
      H    H8270    27.95257   22.22055   12.54773
      O    O8271    26.96127   24.01112   19.92251
      H    H8272    27.25850   24.91740   19.84171
      H    H8273    27.50982   23.52299   19.30847
      O    O8274    24.71510   28.58974   15.79167
      H    H8275    24.48919   28.37346   16.69634
      H    H8276    23.93435   29.02259   15.44627
      O    O8277    31.94488   28.59608   14.39074
      H    H8278    31.34577   29.31966   14.20710
      H    H8279    32.49284   28.53376   13.60838
      O    O8280    27.15502   29.48830   26.45770
      H    H8281    27.05938   28.54777   26.30774
      H    H8282    27.99822   29.70981   26.06251
      O    O8283    30.55136   27.23243   16.42107
      H    H8284    30.94432   27.54965   15.60794
      H    H8285    30.91305   26.35362   16.53552
      O    O8286    22.28608   25.89967   24.61108
      H    H8287    21.89241   26.74719   24.81836
      H    H8288    21.59792   25.26230   24.80194
      O    O8289    28.86058   25.98316   27.68075
      H    H8290    28.17041   25.79038   28.31536
      H    H8291    29.60381   26.26663   28.21318
      O    O8292    19.58778   23.82251   18.64409
      H    H8293    19.29909   24.39280   19.35658
      H    H8294    20.33236   23.34296   19.00721
      O    O8295    19.77480   27.76452    9.85436
      H    H8296    19.69227   28.70760    9.99586
      H    H8297    19.42311   27.62201    8.97559
      O    O8298    31.13688   29.82301   20.51614
      H    H8299    30.40499   30.33169   20.86515
      H    H8300    30.73931   29.00600   20.21502
      O    O8301    27.57462   26.49843   18.92139
      H    H8302    27.57822   26.05742   18.07185
      H    H8303    28.46973   26.82016   19.02858
      O    O8304    23.42485   26.38108   17.88081
      H    H8305    23.08486   26.85860   18.63752
      H    H8306    22.66259   25.92759   17.52092
      O    O8307    27.63663   27.49963   11.91207
      H    H8308    27.75791   27.45828   12.86065
      H    H8309    27.25148   28.36205   11.75674
      O    O8310    31.59947   25.27637   19.92844
      H    H8311    31.61674   25.72724   20.77262
      H    H8312    31.35103   24.37694   20.14178
      O    O8313    26.64878   29.80975   11.31040
      H    H8314    26.08047   29.36157   10.68399
      H    H8315    27.35768   30.16903   10.77691
      O    O8316    35.02654   22.68959   25.76708
      H    H8317    35.35112   21.95856   26.29287
      H    H8318    35.06219   22.37096   24.86518
      O    O8319    21.72570   33.71095   25.18707
      H    H8320    21.34118   33.07032   25.78537
      H    H8321    22.03692   34.41456   25.75655
      O    O8322    27.87541   30.55860   20.66793
      H    H8323    28.24243   30.08446   21.41407
      H    H8324    27.68592   31.43276   21.00877
      O    O8325    20.73946   25.30297   16.79728
      H    H8326    20.45415   24.93854   17.63514
      H    H8327    20.67735   24.57102   16.18360
      O    O8328    25.66535   29.59947   22.98636
      H    H8329    25.36106   30.47867   23.21139
      H    H8330    26.62000   29.65945   23.02210
      O    O8331    24.19353   33.80557   13.58304
      H    H8332    23.41976   33.26533   13.42291
      H    H8333    24.92299   33.28623   13.24482
      O    O8334    34.95233   32.80210   19.37568
      H    H8335    35.67224   33.29763   18.98529
      H    H8336    34.75051   32.12389   18.73107
      O    O8337    30.41332   24.19590   13.51862
      H    H8338    29.59978   23.69722   13.44315
      H    H8339    30.21952   25.03572   13.10225
      O    O8340    30.33421   32.87301   25.26258
      H    H8341    30.26794   31.95258   25.00834
      H    H8342    29.70472   32.97055   25.97704
      O    O8343    33.12816   28.56786   11.81483
      H    H8344    34.01612   28.87959   11.63997
      H    H8345    33.09867   27.69509   11.42289
      O    O8346    24.23727   33.47361   17.22092
      H    H8347    24.75514   32.67043   17.16661
      H    H8348    23.78567   33.41152   18.06260
      O    O8349    29.12422   34.74023   12.49365
      H    H8350    29.46579   35.48446   11.99798
      H    H8351    28.29549   35.05335   12.85613
      O    O8352    21.72172   30.43974   24.13349
      H    H8353    21.36322   31.10513   24.72083
      H    H8354    21.42718   29.60810   24.50475
      O    O8355    24.92304   30.89817   27.01745
      H    H8356    24.62305   31.04388   26.12023
      H    H8357    25.69416   30.33870   26.92479
      O    O8358    30.26588   35.69507   25.01296
      H    H8359    30.28033   34.76316   24.79485
      H    H8360    29.55839   35.78104   25.65194
      O    O8361    35.39959   29.87905   11.28282
      H    H8362    35.31596   30.31047   10.43246
      H    H8363    36.11901   30.33888   11.71550
      O    O8364    36.47700   32.33580   24.35982
      H    H8365    35.75182   32.92868   24.16276
      H    H8366    37.00455   32.32815   23.56115
      O    O8367    36.42831   36.73327   14.01103
      H    H8368    35.78593   36.07884   14.28541
      H    H8369    36.04138   37.13878   13.23510
      O    O8370    32.00696   34.06182   17.85820
      H    H8371    32.35934   33.46463   17.19834
      H    H8372    31.12319   33.73624   18.02903
      O    O8373    28.09329   34.82159   15.26524
      H    H8374    28.78040   35.36851   15.64600
      H    H8375    27.30653   35.36566   15.30020
      O    O8376    20.23253   30.43887   10.75695
      H    H8377    21.10201   30.72135   11.04054
      H    H8378    19.74156   31.25246   10.64183
      O    O8379    27.39601   31.82619   14.87778
      H    H8380    27.85229   32.63671   15.10380
      H    H8381    27.04483   31.50850   15.70963
      O    O8382    29.69927   37.33682   22.10701
      H    H8383    30.34349   37.54276   22.78435
      H    H8384    30.06221   36.57566   21.65409
      O    O8385    23.29719   22.16995   15.35003
      H    H8386    23.16865   22.16174   16.29852
      H    H8387    22.47339   22.50826   14.99913
      O    O8388    30.97248   35.34006   20.82475
      H    H8389    31.61470   34.63937   20.93797
      H    H8390    31.49741   36.11990   20.64444
      O    O8391    34.81805   35.62492   10.54867
      H    H8392    34.59181   34.90796   11.14113
      H    H8393    34.42767   35.37616    9.71084
      O    O8394    32.74624   36.13955   24.02836
      H    H8395    33.08186   36.72622   24.70615
      H    H8396    31.82627   36.00882   24.25814
      O    O8397    20.59965   39.65161   11.32311
      H    H8398    20.95942   40.25054   10.66884
      H    H8399    20.45889   40.19760   12.09662
      O    O8400    20.29658   23.92907   24.81070
      H    H8401    19.58243   24.12876   25.41596
      H    H8402    20.71608   23.15302   25.18218
      O    O8403    34.39968   33.54211   12.21008
      H    H8404    34.11185   34.00338   12.99787
      H    H8405    35.19489   33.08189   12.47851
      O    O8406    20.58384   37.91709   25.79735
      H    H8407    20.69295   36.97657   25.65689
      H    H8408    19.93190   38.18257   25.14873
      O    O8409    28.57510   36.18868   27.19717
      H    H8410    28.25479   35.46961   27.74174
      H    H8411    27.90093   36.86419   27.27077
      O    O8412    26.61652   37.03473   12.14048
      H    H8413    26.60753   37.76770   11.52493
      H    H8414    25.69635   36.78788   12.23318
      O    O8415    22.21718   32.25622   12.88516
      H    H8416    21.60997   32.99611   12.89469
      H    H8417    22.69211   32.34615   12.05898
      O    O8418    31.79046   26.42130   22.56085
      H    H8419    32.15854   25.60082   22.88880
      H    H8420    30.93028   26.48149   22.97641
      O    O8421    35.15666   25.37699   13.36960
      H    H8422    34.52798   25.48156   12.65543
      H    H8423    34.66185   25.59667   14.15899
      O    O8424    29.60248   37.09755   10.80300
      H    H8425    29.70367   36.89395    9.87320
      H    H8426    28.70265   36.84338   11.00778
      O    O8427    27.12506   27.65559   14.78539
      H    H8428    26.41668   28.12422   15.22675
      H    H8429    27.40951   26.99779   15.41991
      O    O8430    28.75066   29.07526   22.78464
      H    H8431    29.24918   29.54984   23.44983
      H    H8432    28.89295   28.15161   22.99165
      O    O8433    31.15661   24.38065   16.22497
      H    H8434    31.03339   24.39927   15.27592
      H    H8435    32.10506   24.42855   16.34481
      O    O8436    28.24429   39.61618   15.49777
      H    H8437    28.49844   39.57832   14.57570
      H    H8438    27.29553   39.48952   15.49059
      O    O8439    25.32857   25.96409   12.16046
      H    H8440    26.17762   26.40111   12.09448
      H    H8441    24.96169   26.27612   12.98767
      O    O8442    35.95734   25.29205   23.62748
      H    H8443    35.45470   26.03259   23.96686
      H    H8444    36.77301   25.68045   23.31116
      O    O8445    34.24954   30.53537   17.07362
      H    H8446    33.30856   30.55039   17.24839
      H    H8447    34.56395   29.74897   17.51965
      O    O8448    24.22771   32.21733   10.63401
      H    H8449    24.99404   32.10547   11.19656
      H    H8450    24.30518   31.52113    9.98169
      O    O8451    22.92238   29.64984   11.31730
      H    H8452    23.00274   28.70259   11.42904
      H    H8453    23.81436   29.98053   11.42337
      O    O8454    36.25210   37.70626   18.74904
      H    H8455    36.37684   38.52937   19.22143
      H    H8456    37.11866   37.49533   18.40146
      O    O8457    23.72386   39.79938   18.42076
      H    H8458    24.46010   39.25092   18.69161
      H    H8459    24.10795   40.66498   18.28136
      O    O8460    20.60840   35.86673   14.29491
      H    H8461    19.68238   36.10885   14.28545
      H    H8462    21.07405   36.69416   14.17338
      O    O8463    22.72968   38.98398   27.60932
      H    H8464    23.53096   39.30519   28.02286
      H    H8465    22.21487   38.62354   28.33131
      O    O8466    26.83409   38.97241   10.24331
      H    H8467    27.62695   39.26129    9.79149
      H    H8468    26.31452   38.54162    9.56456
      O    O8469    31.56615   35.09197   27.55686
      H    H8470    30.95996   35.11513   26.81643
      H    H8471    31.26156   34.36027   28.09358
      O    O8472    32.99618   38.82000   26.16780
      H    H8473    33.94836   38.73580   26.11782
      H    H8474    32.84901   39.48417   26.84118
      O    O8475    35.88710   38.19942   11.66699
      H    H8476    35.60125   37.78593   10.85241
      H    H8477    35.68906   39.12819   11.54704
      O    O8478    20.44946   31.47133   26.55292
      H    H8479    20.95337   30.89206   27.12454
      H    H8480    19.71021   31.75535   27.09056
      O    O8481    27.35183   34.19275   10.10755
      H    H8482    27.24689   33.57798   10.83369
      H    H8483    27.18425   33.66934    9.32385
      O    O8484    27.50326   32.87843   26.08647
      H    H8485    26.73783   33.44693   26.00194
      H    H8486    27.68485   32.58605   25.19330
      O    O8487    30.59210   33.25475   10.71175
      H    H8488    30.04311   33.70168   11.35602
      H    H8489    31.21403   32.74968   11.23552
      O    O8490    34.64559   34.60896   26.64397
      H    H8491    35.38654   34.94654   26.14072
      H    H8492    33.88286   34.77817   26.09095
      O    O8493    22.48177   29.61429   27.44793
      H    H8494    22.52231   29.31568   28.35645
      H    H8495    23.33632   30.01505   27.28868
      O    O8496    26.25961   32.21384   12.60828
      H    H8497    26.68125   32.04783   13.45142
      H    H8498    26.38470   31.40387   12.11379
      O    O8499    24.42235   28.19350   25.41538
      H    H8500    23.89200   27.70259   24.78771
      H    H8501    25.09116   28.62192   24.88117
      O    O8502    28.77238   31.23760    9.85599
      H    H8503    29.29294   30.52251    9.49010
      H    H8504    29.41922   31.87619   10.15604
      O    O8505    33.32016   32.66044   25.17950
      H    H8506    33.73426   32.81495   26.02854
      H    H8507    32.38526   32.78597   25.34207
      O    O8508    33.79238   30.00006   27.18341
      H    H8509    34.37445   29.24529   27.09546
      H    H8510    33.96855   30.53080   26.40656
      O    O8511    24.90958   25.15974   25.49511
      H    H8512    24.81527   24.54181   24.77019
      H    H8513    24.32932   25.88636   25.26810
      O    O8514    27.67573   23.71706   22.52784
      H    H8515    27.22746   23.73949   21.68240
      H    H8516    27.04225   23.31896   23.12487
      O    O8517    28.08168   32.61249   23.14909
      H    H8518    28.50049   33.45577   22.97671
      H    H8519    27.16255   32.74970   22.91977
      O    O8520    30.41807   30.34411   24.53287
      H    H8521    30.53769   29.74822   25.27236
      H    H8522    31.27747   30.38108   24.11300
      O    O8523    32.75686   30.89783   23.10912
      H    H8524    32.23038   31.42209   22.50564
      H    H8525    33.10000   31.53057   23.74010
      O    O8526    25.15550   28.28717    9.55409
      H    H8527    24.95441   27.42390    9.91543
      H    H8528    24.98471   28.20050    8.61625
      O    O8529    25.93242   38.91779   24.26486
      H    H8530    25.39453   39.64240   23.94573
      H    H8531    26.18582   38.44083   23.47460
      O    O8532    27.18495   26.88625   25.79045
      H    H8533    27.77492   26.57783   26.47824
      H    H8534    26.36697   26.41422   25.94644
      O    O8535    32.00429   26.50283   26.02376
      H    H8536    31.31584   25.84098   25.95876
      H    H8537    32.72489   26.05665   26.46860
      O    O8538    32.63433   23.09799   12.08278
      H    H8539    32.91456   22.25478   12.43872
      H    H8540    31.86091   23.33030   12.59666
      O    O8541    23.95378   25.38723    9.54188
      H    H8542    24.25637   25.39397    8.63380
      H    H8543    24.69324   25.03701   10.03865
      O    O8544    28.78865   40.15291   24.52353
      H    H8545    28.71452   41.05643   24.83076
      H    H8546    27.88653   39.83410   24.49573
      O    O8547    27.17227   24.33069   10.52750
      H    H8548    26.82447   23.65309    9.94775
      H    H8549    27.37355   23.86964   11.34184
      O    O8550    29.33718   39.31877   12.14616
      H    H8551    30.23226   39.65726   12.16804
      H    H8552    29.36894   38.59671   11.51859
      O    O8553    22.97679   34.69147   10.37486
      H    H8554    23.41428   35.23444   11.03062
      H    H8555    23.46157   33.86617   10.38450
      O    O8556    20.19137   37.48037   17.82689
      H    H8557    20.52168   36.61248   17.59475
      H    H8558    20.62047   37.68623   18.65738
      O    O8559    24.78757   35.81127   15.48709
      H    H8560    24.48712   35.68777   16.38748
      H    H8561    24.68132   34.95213   15.07866
      O    O8562    20.68040   38.34743   20.56505
      H    H8563    20.24349   38.52751   21.39747
      H    H8564    21.24816   39.10489   20.42322
      O    O8565    36.31661   37.84913   24.85278
      H    H8566    35.71681   37.90839   24.10917
      H    H8567    36.44600   36.90963   24.98247
      O    O8568    37.55676   35.59091   10.18975
      H    H8569    36.72605   35.65858   10.66048
      H    H8570    37.73394   36.48133    9.88644
      O    O8571    37.01240   32.33566   12.69317
      H    H8572    37.77430   32.90533   12.79914
      H    H8573    37.02784   31.76838   13.46400
      O    O8574    20.51284   30.85946   16.92394
      H    H8575    19.85772   30.59062   16.27991
      H    H8576    21.35063   30.74990   16.47414
      O    O8577    38.01840   33.19067   17.53737
      H    H8578    38.38928   32.40740   17.13096
      H    H8579    38.65859   33.87958   17.35910
      O    O8580    35.00178   34.57433   22.95040
      H    H8581    34.18776   35.00405   23.21298
      H    H8582    35.40920   35.18617   22.33730
      O    O8583    37.06432   32.62910    9.85043
      H    H8584    37.33921   33.53699    9.72235
      H    H8585    36.87540   32.56535   10.78662
      O    O8586    33.46188   25.65358   11.14579
      H    H8587    33.88037   25.46668   10.30545
      H    H8588    33.15549   24.80149   11.45608
      O    O8589    36.96086   30.56600   14.84337
      H    H8590    36.58522   29.79879   14.41150
      H    H8591    36.23117   30.94827   15.33086
      O    O8592    21.55043   31.24471   21.46427
      H    H8593    21.91774   31.15745   22.34388
      H    H8594    20.98151   30.48137   21.36496
      O    O8595    36.35082   29.71315   24.47732
      H    H8596    36.11943   29.48443   23.57712
      H    H8597    36.61127   30.63311   24.43181
      O    O8598    21.10203   28.15562   25.37012
      H    H8599    20.20764   28.12230   25.70949
      H    H8600    21.64179   28.35430   26.13524
      O    O8601    34.78962   24.93879   27.25529
      H    H8602    35.66664   24.94713   27.63869
      H    H8603    34.80171   24.20188   26.64453
      O    O8604    19.72665   28.06935   12.86647
      H    H8605    18.82305   28.33237   12.69164
      H    H8606    20.21071   28.34047   12.08647
      O    O8607    36.23595   28.79175   18.14409
      H    H8608    36.75970   28.29801   17.51311
      H    H8609    36.82189   28.92678   18.88885
      O    O8610    36.41492   28.87573   21.66605
      H    H8611    35.46519   28.84209   21.78055
      H    H8612    36.59622   29.78575   21.43102
      O    O8613    22.26937   27.12590   10.77591
      H    H8614    22.97854   26.70422   10.29064
      H    H8615    21.55336   27.19343   10.14425
      O    O8616    21.91678   23.17984    9.81618
      H    H8617    22.63960   23.72073   10.13430
      H    H8618    22.18924   22.90618    8.94033
      O    O8619    35.72595   28.04908   14.08333
      H    H8620    36.22186   27.81617   14.86822
      H    H8621    35.52756   27.21027   13.66710
      O    O8622    21.60600   22.43045   19.71844
      H    H8623    22.25362   21.88019   19.27795
      H    H8624    22.02619   22.68477   20.54002
      O    O8625    37.15466   26.68518   16.61710
      H    H8626    37.04459   26.53078   17.55533
      H    H8627    37.91542   26.15727   16.37464
      O    O8628    35.50124   22.62459   23.07540
      H    H8629    36.13846   23.23800   23.44132
      H    H8630    35.64873   22.66066   22.13032
      O    O8631    38.04369   24.51597    9.85772
      H    H8632    38.96862   24.38409    9.64954
      H    H8633    38.02127   24.59525   10.81136
      O    O8634    38.11754   25.28704   12.48339
      H    H8635    37.32269   25.22155   13.01268
      H    H8636    38.32187   26.22210   12.47192
      O    O8637    35.05938   39.32619   16.47723
      H    H8638    35.65529   39.00465   15.80067
      H    H8639    35.31720   38.85337   17.26855
      O    O8640    21.35920   22.58602   22.46097
      H    H8641    21.01068   23.04240   23.22679
      H    H8642    21.02797   21.69173   22.54321
      O    O8643    22.96564   35.75798   26.62629
      H    H8644    22.92260   35.38727   27.50773
      H    H8645    23.09674   36.69574   26.76647
      O    O8646    26.66624   37.31394   22.22726
      H    H8647    26.42538   37.58140   21.34031
      H    H8648    27.60651   37.48451   22.28235
      O    O8649    28.87168   23.77721   25.98291
      H    H8650    28.81057   24.36939   26.73245
      H    H8651    29.81172   23.66981   25.83794
      O    O8652    31.50914   23.43422   25.62214
      H    H8653    32.12318   23.75214   24.96025
      H    H8654    32.05410   22.94907   26.24173
      O    O8655    37.92666   39.33338   23.02832
      H    H8656    37.43249   39.73027   22.31104
      H    H8657    37.31799   38.70830   23.42205
      O    O8658    22.03127   22.11364   25.73605
      H    H8659    22.57957   21.93245   24.97266
      H    H8660    22.09680   21.32305   26.27168
      O    O8661    22.80444   38.70421   23.74607
      H    H8662    22.21047   38.57268   24.48507
      H    H8663    22.79683   37.86802   23.28028
      O    O8664    32.24994   21.99743   21.94907
      H    H8665    31.37593   22.33094   21.74636
      H    H8666    32.14102   21.52475   22.77426
      O    O8667    33.15714   24.20452   23.33324
      H    H8668    32.82848   23.38969   22.95341
      H    H8669    34.10537   24.16150   23.20981
      O    O8670    35.61060   39.97572   20.30700
      H    H8671    35.15090   40.72730   19.93280
      H    H8672    34.98185   39.25637   20.24848
      O    O8673    22.43567   36.07004   22.69687
      H    H8674    21.70907   35.45057   22.62947
      H    H8675    22.49658   36.46411   21.82668
      O    O8676    26.04018   38.28454   19.48181
      H    H8677    26.55668   37.67328   18.95664
      H    H8678    26.68991   38.78742   19.97291
      O    O8679    28.77973   39.17539   20.30871
      H    H8680    29.06751   38.92082   19.43201
      H    H8681    29.29205   38.62313   20.89927
      O    O8682    29.99743   22.91441   20.88836
      H    H8683    29.21461   23.38896   21.16804
      H    H8684    29.70372   22.00990   20.77968
      O    O8685    34.54953   23.61672   18.93327
      H    H8686    34.99034   23.56123   18.08543
      H    H8687    34.28029   24.53252   19.00429
      O    O8688    36.41339   23.24825   16.94415
      H    H8689    36.35223   22.30437   16.79725
      H    H8690    37.19259   23.35626   17.48950
      O    O8691    20.71867   39.38748   15.90655
      H    H8692    20.55087   38.75455   16.60474
      H    H8693    19.85212   39.59342   15.55597
      O    O8694    21.34147   23.21916   13.40973
      H    H8695    22.09940   23.33205   12.83614
      H    H8696    20.87918   24.05608   13.36408
      O    O8697    27.88285   25.33309   16.39996
      H    H8698    27.07030   24.95878   16.05955
      H    H8699    28.38701   24.57760   16.70208
      O    O8700    32.38535   21.99733   17.63827
      H    H8701    32.98828   22.56935   18.11312
      H    H8702    31.64465   22.56128   17.41566
      O    O8703    35.52881   22.39949   12.91230
      H    H8704    35.72387   23.29783   13.17904
      H    H8705    34.74179   22.16820   13.40559
      O    O8706    22.32494   38.08081   13.35156
      H    H8707    21.79970   38.46161   12.64776
      H    H8708    22.24939   38.70588   14.07253
      O    O8709    23.71398   23.74557   11.94993
      H    H8710    24.24326   22.95855   11.82072
      H    H8711    24.34681   24.42469   12.18348
      O    O8712    25.90777   23.48308   15.00447
      H    H8713    25.27804   22.78181   15.17148
      H    H8714    25.36828   24.24349   14.78778
      O    O8715    28.84696   40.09700   27.67553
      H    H8716    29.77369   39.86143   27.71913
      H    H8717    28.83200   40.92420   27.19413
      O    O8718    37.08147   39.63956   14.67295
      H    H8719    37.25669   38.95333   14.02905
      H    H8720    36.38362   40.16427   14.28062
      O    O8721    26.03332   22.76148   27.43972
      H    H8722    25.75175   23.26484   26.67580
      H    H8723    26.41529   21.96365   27.07393
      O    O8724    24.92423   40.02904   12.22649
      H    H8725    25.65611   39.74497   11.67887
      H    H8726    25.18360   39.79037   13.11642
      O    O8727    24.08571   36.14552   12.23112
      H    H8728    23.45660   36.61403   12.77970
      H    H8729    24.20049   35.30044   12.66574
      O    O8730    32.63487   22.17684   28.01776
      H    H8731    32.52141   22.49630   28.91292
      H    H8732    33.45184   22.57809   27.72149
      O    O8733    35.41472   39.32399   27.49963
      H    H8734    36.20725   38.82891   27.29223
      H    H8735    35.70803   40.00300   28.10719
      O    O8736    -6.00802   -7.35262   35.92994
      H    H8737    -6.08861   -8.26716   35.65911
      H    H8738    -6.42157   -6.85591   35.22391
      O    O8739    -7.87621   -5.57471   37.81086
      H    H8740    -8.65200   -6.05467   38.10072
      H    H8741    -7.22492   -6.25415   37.63648
      O    O8742    -3.85547   -1.16870   36.59078
      H    H8743    -4.31732   -1.93997   36.91949
      H    H8744    -3.04291   -1.14209   37.09602
      O    O8745    -7.62914    1.11711   36.21118
      H    H8746    -8.24799    1.57286   35.64062
      H    H8747    -6.77396    1.27225   35.81015
      O    O8748    -8.43531   -2.89900   37.81788
      H    H8749    -8.50449   -3.84000   37.65679
      H    H8750    -7.67333   -2.80885   38.39014
      O    O8751    -6.76280   -3.99897   33.60437
      H    H8752    -7.38108   -3.53403   33.04064
      H    H8753    -6.25048   -3.30622   34.02132
      O    O8754    -1.76996   -1.03936   40.01311
      H    H8755    -2.45361   -0.36945   40.00478
      H    H8756    -1.23053   -0.84130   39.24760
      O    O8757    -4.23408    0.80505   38.72763
      H    H8758    -4.22137    0.40128   37.85985
      H    H8759    -4.78656    1.57978   38.62377
      O    O8760    -2.93954   -2.47333   33.81664
      H    H8761    -3.04991   -3.41589   33.94159
      H    H8762    -2.94272   -2.11176   34.70292
      O    O8763    -4.83554   -4.29197   40.05589
      H    H8764    -4.41866   -4.50595   39.22123
      H    H8765    -4.11156   -4.03469   40.62675
      O    O8766    -7.39751   -6.84680   33.17289
      H    H8767    -8.32459   -6.91306   33.40174
      H    H8768    -7.24503   -5.90878   33.05842
      O    O8769    -0.88933   -5.89324   40.14751
      H    H8770    -1.71747   -5.82393   39.67253
      H    H8771    -0.29428   -5.30781   39.67910
      O    O8772    -3.36779   -5.28477   33.67642
      H    H8773    -3.98654   -5.62281   33.02905
      H    H8774    -3.38534   -5.92879   34.38434
      O    O8775    -3.92513   -9.10631   41.09300
      H    H8776    -4.33801   -8.28094   41.34700
      H    H8777    -4.65753   -9.69181   40.90064
      O    O8778    -3.23512    0.93962   41.78110
      H    H8779    -3.71206    1.74684   41.58836
      H    H8780    -3.91894    0.28745   41.93372
      O    O8781    -5.19132   -6.04608   30.68369
      H    H8782    -4.75199   -6.88384   30.53748
      H    H8783    -4.47847   -5.41314   30.77011
      O    O8784    -7.08178   -1.10648   34.65182
      H    H8785    -6.64219   -0.36404   34.23736
      H    H8786    -7.14309   -0.86382   35.57571
      O    O8787     0.34480    0.70082   46.85024
      H    H8788     0.82077    1.17910   47.52914
      H    H8789     0.96552    0.63256   46.12479
      O    O8790    -0.25187   -2.10790   44.01024
      H    H8791    -0.12557   -2.34671   43.09196
      H    H8792    -0.20974   -2.93945   44.48245
      O    O8793    -6.39020    1.59490   42.57972
      H    H8794    -5.87573    1.50570   43.38196
      H    H8795    -7.23329    1.94087   42.87251
      O    O8796    -4.41476    1.88043   32.00812
      H    H8797    -4.57465    1.59073   32.90630
      H    H8798    -4.58009    1.10445   31.47264
      O    O8799    -4.71215   -0.61081   30.56792
      H    H8800    -5.40563   -0.61308   29.90815
      H    H8801    -3.96986   -1.03488   30.13734
      O    O8802    -5.14715    1.01546   34.64277
      H    H8803    -4.69146    0.23440   34.95663
      H    H8804    -4.80790    1.72614   35.18689
      O    O8805    -6.24262   -8.49439   45.67098
      H    H8806    -5.91728   -9.32802   45.33120
      H    H8807    -5.45459   -7.97154   45.81881
      O    O8808    -5.60382   -8.95262   33.16509
      H    H8809    -6.20293   -8.22904   32.98145
      H    H8810    -5.05586   -9.01494   32.38273
      O    O8811    -6.41182   -7.72569   39.29049
      H    H8812    -7.14371   -7.21701   39.63950
      H    H8813    -6.80939   -8.54270   38.98937
      O    O8814    -2.59637   -4.74660   38.15003
      H    H8815    -1.87646   -4.25107   37.75964
      H    H8816    -2.79819   -5.42481   37.50542
      O    O8817    -7.21449   -4.67569   44.03693
      H    H8818    -7.28076   -5.59612   43.78269
      H    H8819    -7.84398   -4.57815   44.75139
      O    O8820    -4.42054   -8.98084   30.58918
      H    H8821    -3.53258   -8.66911   30.41432
      H    H8822    -4.45003   -9.85361   30.19724
      O    O8823    -8.42448   -2.80847   31.26800
      H    H8824    -8.08291   -2.06424   30.77233
      H    H8825    -9.25321   -2.49535   31.63048
      O    O8826    -7.28282   -1.85363   43.78731
      H    H8827    -7.26837   -2.78554   43.56920
      H    H8828    -7.99031   -1.76766   44.42629
      O    O8829    -2.14911   -7.66965   30.05717
      H    H8830    -2.23274   -7.23823   29.20681
      H    H8831    -1.42969   -7.20982   30.48985
      O    O8832    -1.07170   -5.21290   43.13417
      H    H8833    -1.79688   -4.62002   42.93711
      H    H8834    -0.54415   -5.22055   42.33550
      O    O8835    -1.12039   -0.81543   32.78538
      H    H8836    -1.76277   -1.46986   33.05976
      H    H8837    -1.50732   -0.40992   32.00945
      O    O8838    -5.54174   -3.48688   36.63255
      H    H8839    -5.18936   -4.08407   35.97269
      H    H8840    -6.42551   -3.81246   36.80338
      O    O8841    -7.84943   -0.21188   40.88136
      H    H8842    -7.20521   -0.00594   41.55870
      H    H8843    -7.48649   -0.97304   40.42844
      O    O8844    -6.57622   -2.20864   39.59910
      H    H8845    -5.93400   -2.90933   39.71232
      H    H8846    -6.05129   -1.42880   39.41879
      O    O8847    -2.73065   -1.92378   29.32302
      H    H8848    -2.95689   -2.64074   29.91548
      H    H8849    -3.12103   -2.17254   28.48519
      O    O8850    -4.80246   -1.40915   42.80271
      H    H8851    -4.46684   -0.82248   43.48050
      H    H8852    -5.72243   -1.53988   43.03249
      O    O8853    -3.14902   -4.00659   30.98443
      H    H8854    -3.43685   -3.54532   31.77222
      H    H8855    -2.35381   -4.46681   31.25286
      O    O8856    -7.94622   -0.45115   29.57735
      H    H8857    -7.84503   -0.65475   28.64755
      H    H8858    -8.84605   -0.70532   29.78213
      O    O8859    -8.79804   -8.47344   41.55899
      H    H8860    -8.29952   -7.99886   42.22418
      H    H8861    -8.65575   -9.39709   41.76600
      O    O8862    -3.29916   -7.01333   35.84797
      H    H8863    -4.24014   -6.99831   36.02274
      H    H8864    -2.98475   -7.79973   36.29400
      O    O8865    -1.29660    0.15756   37.52339
      H    H8866    -1.17186    0.98067   37.99578
      H    H8867    -0.43004   -0.05337   37.17581
      O    O8868    -5.98255   -2.45673   46.33121
      H    H8869    -6.58874   -2.43357   45.59078
      H    H8870    -6.28714   -3.18843   46.86793
      O    O8871    -4.55252    1.27130   44.94215
      H    H8872    -3.60034    1.18710   44.89217
      H    H8873    -4.69969    1.93547   45.61553
      O    O8874    -1.66160    0.65072   30.44134
      H    H8875    -1.94745    0.23723   29.62676
      H    H8876    -1.85964    1.57949   30.32139
      O    O8877    -6.95660   -4.29395   29.48610
      H    H8878    -7.50559   -3.84702   30.13037
      H    H8879    -6.33467   -4.79902   30.00987
      O    O8880    -2.90311   -2.93974   45.41832
      H    H8881    -2.16216   -2.60216   44.91507
      H    H8882    -3.66584   -2.77053   44.86530
      O    O8883    -8.77632   -6.31110   28.63034
      H    H8884    -8.25576   -7.02619   28.26445
      H    H8885    -8.12948   -5.67251   28.93039
      O    O8886    -4.22854   -4.88826   43.95385
      H    H8887    -3.81444   -4.73375   44.80289
      H    H8888    -5.16344   -4.76273   44.11642
      O    O8889    -3.75632   -7.54864   45.95776
      H    H8890    -3.17425   -8.30341   45.86981
      H    H8891    -3.58015   -7.01790   45.18091
      O    O8892    -7.13063   -7.20459   43.30722
      H    H8893    -7.01101   -7.80048   44.04671
      H    H8894    -6.27123   -7.16762   42.88735
      O    O8895    -4.79184   -6.65087   41.88347
      H    H8896    -5.31832   -6.12661   41.27999
      H    H8897    -4.44870   -6.01813   42.51445
      O    O8898    -8.76005    2.60421   43.29788
      H    H8899    -8.83418    3.50773   43.60511
      H    H8900    -9.66217    2.28540   43.27008
      O    O8901    -8.21152    1.77007   30.92051
      H    H8902    -7.31644    2.10856   30.94239
      H    H8903    -8.17976    1.04801   30.29294
      O    O8904    -1.23209    0.30043   43.62713
      H    H8905    -1.83189    0.35969   42.88352
      H    H8906    -1.10270   -0.63907   43.75682
      O    O8907     0.00806   -1.95779   28.96410
      H    H8908    -0.82265   -1.89012   29.43483
      H    H8909     0.18524   -1.06737   28.66079
      O    O8910    -0.53630   -5.21304   31.46752
      H    H8911     0.22560   -4.64337   31.57349
      H    H8912    -0.52086   -5.78032   32.23835
      O    O8913     0.46970   -4.35803   36.31172
      H    H8914     0.84058   -5.14130   35.90531
      H    H8915     1.10989   -3.66912   36.13345
      O    O8916    -2.54692   -2.97437   41.72475
      H    H8917    -3.36094   -2.54465   41.98733
      H    H8918    -2.13950   -2.36253   41.11165
      O    O8919    -0.48438   -4.91960   28.62478
      H    H8920    -0.20949   -4.01171   28.49670
      H    H8921    -0.67330   -4.98335   29.56097
      O    O8922    -0.58784   -6.98270   33.61772
      H    H8923    -0.96348   -7.74991   33.18585
      H    H8924    -1.31753   -6.60043   34.10521
      O    O8925    -1.19788   -7.83555   43.25167
      H    H8926    -1.42927   -8.06427   42.35147
      H    H8927    -0.93743   -6.91559   43.20616
      O    O8928    -1.31275   -8.75695   36.91844
      H    H8929    -0.78900   -9.25069   36.28746
      H    H8930    -0.72681   -8.62192   37.66320
      O    O8931    -1.13378   -8.67297   40.44040
      H    H8932    -2.08351   -8.70661   40.55490
      H    H8933    -0.95248   -7.76295   40.20537
      O    O8934    -2.48932    1.77749   35.25158
      H    H8935    -1.89341    1.45595   34.57502
      H    H8936    -2.23150    1.30467   36.04290
      O    O8937     0.37796    1.78468   41.80267
      H    H8938    -0.11621    2.18157   41.08539
      H    H8939    -0.23071    1.15960   42.19640
      O    O8940    -1.93810    2.42702   39.08135
      H    H8941    -2.39780    3.17860   38.70715
      H    H8942    -2.56685    1.70767   39.02283
      O    O8943    -8.76897    1.62669   39.08306
      H    H8944    -8.48119    1.37212   38.20636
      H    H8945    -8.25665    1.07443   39.67362
      O    O8946    -8.70174    2.54830   46.44988
      H    H8947    -7.77501    2.31273   46.49348
      H    H8948    -8.71670    3.37550   45.96848
      O    O8949    -0.46723    2.09086   33.44730
      H    H8950    -0.29201    1.40463   32.80340
      H    H8951    -1.16508    2.61557   33.05497
      O    O8952    -2.13398    1.77529   46.27398
      H    H8953    -1.34145    1.28021   46.06658
      H    H8954    -1.84067    2.45430   46.88154
      O    O8955    12.76633   -7.35262   35.92994
      H    H8956    12.68574   -8.26716   35.65911
      H    H8957    12.35278   -6.85591   35.22391
      O    O8958    10.89814   -5.57471   37.81086
      H    H8959    10.12235   -6.05467   38.10072
      H    H8960    11.54943   -6.25415   37.63648
      O    O8961     4.91472   -5.26273   38.68844
      H    H8962     4.08321   -5.51786   39.08809
      H    H8963     5.52282   -5.19166   39.42423
      O    O8964    14.91888   -1.16870   36.59078
      H    H8965    14.45703   -1.93997   36.91949
      H    H8966    15.73144   -1.14209   37.09602
      O    O8967     4.89485   -1.22872   38.88424
      H    H8968     5.19765   -2.11895   38.70526
      H    H8969     5.63921   -0.67170   38.65647
      O    O8970     1.28722   -7.70198   38.35665
      H    H8971     1.85883   -8.46976   38.35701
      H    H8972     1.28737   -7.40310   37.44731
      O    O8973    11.14521    1.11711   36.21118
      H    H8974    10.52636    1.57286   35.64062
      H    H8975    12.00039    1.27225   35.81015
      O    O8976    10.33904   -2.89900   37.81788
      H    H8977    10.26986   -3.84000   37.65679
      H    H8978    11.10102   -2.80885   38.39014
      O    O8979     7.34083   -8.75076   37.83904
      H    H8980     7.84865   -8.25266   38.47954
      H    H8981     7.87215   -9.52724   37.66297
      O    O8982    12.01155   -3.99897   33.60437
      H    H8983    11.39327   -3.53403   33.04064
      H    H8984    12.52387   -3.30622   34.02132
      O    O8985     6.87472   -4.47138   40.28273
      H    H8986     6.54166   -3.84449   40.92483
      H    H8987     7.05139   -3.94520   39.50289
      O    O8988     6.08663   -2.50330   42.09765
      H    H8989     6.70403   -1.82820   41.81609
      H    H8990     5.22594   -2.09451   42.00640
      O    O8991     1.37987   -3.31332   30.97833
      H    H8992     1.00266   -2.82461   30.24682
      H    H8993     1.63717   -2.64079   31.60898
      O    O8994    17.00439   -1.03936   40.01311
      H    H8995    16.32074   -0.36945   40.00478
      H    H8996    17.54382   -0.84130   39.24760
      O    O8997    14.54027    0.80505   38.72763
      H    H8998    14.55298    0.40128   37.85985
      H    H8999    13.98779    1.57978   38.62377
      O    O9000    15.83481   -2.47333   33.81664
      H    H9001    15.72444   -3.41589   33.94159
      H    H9002    15.83163   -2.11176   34.70292
      O    O9003    13.93881   -4.29197   40.05589
      H    H9004    14.35569   -4.50595   39.22123
      H    H9005    14.66279   -4.03469   40.62675
      O    O9006    11.37684   -6.84680   33.17289
      H    H9007    10.44976   -6.91306   33.40174
      H    H9008    11.52932   -5.90878   33.05842
      O    O9009    17.88502   -5.89324   40.14751
      H    H9010    17.05688   -5.82393   39.67253
      H    H9011    18.48007   -5.30781   39.67910
      O    O9012    15.40656   -5.28477   33.67642
      H    H9013    14.78781   -5.62281   33.02905
      H    H9014    15.38901   -5.92879   34.38434
      O    O9015    14.84922   -9.10631   41.09300
      H    H9016    14.43634   -8.28094   41.34700
      H    H9017    14.11682   -9.69181   40.90064
      O    O9018     6.98250   -6.32032   35.95487
      H    H9019     6.57820   -7.03260   35.45946
      H    H9020     7.06881   -6.66500   36.84367
      O    O9021     7.45067   -2.63357   38.11879
      H    H9022     7.15350   -3.23902   37.43957
      H    H9023     8.40065   -2.59583   38.00772
      O    O9024     5.69536   -9.54600   39.73477
      H    H9025     6.24682   -9.43647   38.96010
      H    H9026     6.20971   -9.17224   40.45029
      O    O9027    15.53923    0.93962   41.78110
      H    H9028    15.06229    1.74684   41.58836
      H    H9029    14.85541    0.28745   41.93372
      O    O9030     6.54251   -2.89540   44.76957
      H    H9031     5.64537   -2.67140   45.01691
      H    H9032     6.56780   -2.77190   43.82071
      O    O9033    13.58303   -6.04608   30.68369
      H    H9034    14.02236   -6.88384   30.53748
      H    H9035    14.29588   -5.41314   30.77011
      O    O9036     5.36963   -6.02406   43.34530
      H    H9037     5.23041   -5.15178   43.71404
      H    H9038     4.48777   -6.36678   43.20010
      O    O9039    11.69257   -1.10648   34.65182
      H    H9040    12.13216   -0.36404   34.23736
      H    H9041    11.63126   -0.86382   35.57571
      O    O9042     7.16767   -0.08189   45.55382
      H    H9043     7.13921    0.32240   44.68666
      H    H9044     7.00417   -1.01086   45.39098
      O    O9045     3.68296   -7.42582   33.45553
      H    H9046     3.56272   -6.69961   32.84366
      H    H9047     3.37305   -8.19553   32.97832
      O    O9048    19.11915    0.70082   46.85024
      H    H9049    19.59512    1.17910   47.52914
      H    H9050    19.73987    0.63256   46.12479
      O    O9051     1.32150   -4.25431   39.26240
      H    H9052     1.39954   -4.11943   38.31797
      H    H9053     1.93567   -4.96272   39.45521
      O    O9054     2.56626   -2.55429   35.67301
      H    H9055     2.15907   -2.41283   34.81837
      H    H9056     3.45756   -2.83827   35.47013
      O    O9057    18.52248   -2.10790   44.01024
      H    H9058    18.64878   -2.34671   43.09196
      H    H9059    18.56461   -2.93945   44.48245
      O    O9060    12.38415    1.59490   42.57972
      H    H9061    12.89862    1.50570   43.38196
      H    H9062    11.54106    1.94087   42.87251
      O    O9063    14.35959    1.88043   32.00812
      H    H9064    14.19970    1.59073   32.90630
      H    H9065    14.19426    1.10445   31.47264
      O    O9066     6.83843    1.66029   33.78528
      H    H9067     6.66268    0.74384   33.57206
      H    H9068     5.98400    2.01902   34.02506
      O    O9069    14.06220   -0.61081   30.56792
      H    H9070    13.36872   -0.61308   29.90815
      H    H9071    14.80449   -1.03488   30.13734
      O    O9072    13.62720    1.01546   34.64277
      H    H9073    14.08289    0.23440   34.95663
      H    H9074    13.96645    1.72614   35.18689
      O    O9075     1.37745   -3.21289   41.80184
      H    H9076     1.54056   -3.68236   40.98378
      H    H9077     1.84270   -3.72054   42.46673
      O    O9078    12.53173   -8.49439   45.67098
      H    H9079    12.85707   -9.32802   45.33120
      H    H9080    13.31976   -7.97154   45.81881
      O    O9081     5.94075   -8.95896   34.56602
      H    H9082     5.71484   -9.17524   35.47069
      H    H9083     5.16000   -8.52611   34.22062
      O    O9084    13.17053   -8.95262   33.16509
      H    H9085    12.57142   -8.22904   32.98145
      H    H9086    13.71849   -9.01494   32.38273
      O    O9087     8.38067   -8.06040   45.23205
      H    H9088     8.28503   -9.00093   45.08209
      H    H9089     9.22387   -7.83889   44.83686
      O    O9090    12.36253   -7.72569   39.29049
      H    H9091    11.63064   -7.21701   39.63950
      H    H9092    11.96496   -8.54270   38.98937
      O    O9093     7.87443   -7.73895   30.08475
      H    H9094     7.30612   -8.18713   29.45834
      H    H9095     8.58333   -7.37967   29.55126
      O    O9096     2.95135   -3.83775   43.96142
      H    H9097     2.56683   -4.47838   44.55972
      H    H9098     3.26257   -3.13414   44.53090
      O    O9099     9.10106   -6.99010   39.44228
      H    H9100     9.46808   -7.46424   40.18842
      H    H9101     8.91157   -6.11594   39.78312
      O    O9102     6.89100   -7.94923   41.76071
      H    H9103     6.58671   -7.07003   41.98574
      H    H9104     7.84565   -7.88925   41.79645
      O    O9105     5.41918   -3.74313   32.35739
      H    H9106     4.64541   -4.28337   32.19726
      H    H9107     6.14864   -4.26247   32.01917
      O    O9108    16.17798   -4.74660   38.15003
      H    H9109    16.89789   -4.25107   37.75964
      H    H9110    15.97616   -5.42481   37.50542
      O    O9111    11.55986   -4.67569   44.03693
      H    H9112    11.49359   -5.59612   43.78269
      H    H9113    10.93037   -4.57815   44.75139
      O    O9114    14.35381   -8.98084   30.58918
      H    H9115    15.24177   -8.66911   30.41432
      H    H9116    14.32432   -9.85361   30.19724
      O    O9117     5.46292   -4.07509   35.99527
      H    H9118     5.98079   -4.87827   35.94096
      H    H9119     5.01132   -4.13718   36.83695
      O    O9120    10.34987   -2.80847   31.26800
      H    H9121    10.69144   -2.06424   30.77233
      H    H9122     9.52114   -2.49535   31.63048
      O    O9123     2.94737   -7.10896   42.90784
      H    H9124     2.58887   -6.44357   43.49518
      H    H9125     2.65283   -7.94060   43.27910
      O    O9126     6.14869   -6.65053   45.79180
      H    H9127     5.84870   -6.50482   44.89458
      H    H9128     6.91981   -7.21000   45.69914
      O    O9129    11.49153   -1.85363   43.78731
      H    H9130    11.50598   -2.78554   43.56920
      H    H9131    10.78404   -1.76766   44.42629
      O    O9132    16.62524   -7.66965   30.05717
      H    H9133    16.54161   -7.23823   29.20681
      H    H9134    17.34466   -7.20982   30.48985
      O    O9135    17.70265   -5.21290   43.13417
      H    H9136    16.97747   -4.62002   42.93711
      H    H9137    18.23020   -5.22055   42.33550
      O    O9138    17.65396   -0.81543   32.78538
      H    H9139    17.01158   -1.46986   33.05976
      H    H9140    17.26703   -0.40992   32.00945
      O    O9141    13.23261   -3.48688   36.63255
      H    H9142    13.58499   -4.08407   35.97269
      H    H9143    12.34884   -3.81246   36.80338
      O    O9144     9.31894   -2.72711   34.03959
      H    H9145    10.00605   -2.18019   34.42035
      H    H9146     8.53218   -2.18304   34.07455
      O    O9147     1.45818   -7.10983   29.53130
      H    H9148     2.32766   -6.82735   29.81489
      H    H9149     0.96721   -6.29624   29.41618
      O    O9150     8.62166   -5.72251   33.65213
      H    H9151     9.07794   -4.91199   33.87815
      H    H9152     8.27048   -6.04020   34.48398
      O    O9153    10.92492   -0.21188   40.88136
      H    H9154    11.56914   -0.00594   41.55870
      H    H9155    11.28786   -0.97304   40.42844
      O    O9156    12.19813   -2.20864   39.59910
      H    H9157    12.84035   -2.90933   39.71232
      H    H9158    12.72306   -1.42880   39.41879
      O    O9159    16.04370   -1.92378   29.32302
      H    H9160    15.81746   -2.64074   29.91548
      H    H9161    15.65332   -2.17254   28.48519
      O    O9162    13.97189   -1.40915   42.80271
      H    H9163    14.30751   -0.82248   43.48050
      H    H9164    13.05192   -1.53988   43.03249
      O    O9165     1.82530    2.10291   30.09746
      H    H9166     2.18507    2.70184   29.44319
      H    H9167     1.68454    2.64890   30.87097
      O    O9168    15.62533   -4.00659   30.98443
      H    H9169    15.33750   -3.54532   31.77222
      H    H9170    16.42054   -4.46681   31.25286
      O    O9171     1.80949    0.36839   44.57170
      H    H9172     1.91860   -0.57213   44.43124
      H    H9173     1.15755    0.63387   43.92308
      O    O9174     9.80075   -1.36002   45.97152
      H    H9175     9.48044   -2.07909   46.51609
      H    H9176     9.12658   -0.68451   46.04512
      O    O9177     7.84217   -0.51397   30.91483
      H    H9178     7.83318    0.21900   30.29928
      H    H9179     6.92200   -0.76082   31.00753
      O    O9180     3.44283   -5.29248   31.65951
      H    H9181     2.83562   -4.55259   31.66904
      H    H9182     3.91776   -5.20255   30.83333
      O    O9183    10.82813   -0.45115   29.57735
      H    H9184    10.92932   -0.65475   28.64755
      H    H9185     9.92830   -0.70532   29.78213
      O    O9186     9.97631   -8.47344   41.55899
      H    H9187    10.47483   -7.99886   42.22418
      H    H9188    10.11860   -9.39709   41.76600
      O    O9189     9.46994    2.06748   34.27212
      H    H9190     9.72409    2.02962   33.35005
      H    H9191     8.52118    1.94082   34.26494
      O    O9192    15.47519   -7.01333   35.84797
      H    H9193    14.53421   -6.99831   36.02274
      H    H9194    15.78960   -7.79973   36.29400
      O    O9195     5.45336   -5.33137   29.40836
      H    H9196     6.21969   -5.44323   29.97091
      H    H9197     5.53083   -6.02757   28.75604
      O    O9198     4.14803   -7.89886   30.09165
      H    H9199     4.22839   -8.84611   30.20339
      H    H9200     5.04001   -7.56817   30.19772
      O    O9201    17.47775    0.15756   37.52339
      H    H9202    17.60249    0.98067   37.99578
      H    H9203    18.34431   -0.05337   37.17581
      O    O9204     4.94951    2.25068   37.19511
      H    H9205     5.68575    1.70222   37.46596
      H    H9206     5.33360    3.11628   37.05571
      O    O9207     1.83405   -1.68197   33.06926
      H    H9208     0.90803   -1.43985   33.05980
      H    H9209     2.29970   -0.85454   32.94773
      O    O9210     3.95533    1.43528   46.38367
      H    H9211     4.75661    1.75649   46.79721
      H    H9212     3.44052    1.07484   47.10566
      O    O9213     8.05974    1.42371   29.01766
      H    H9214     8.85260    1.71259   28.56584
      H    H9215     7.54017    0.99292   28.33891
      O    O9216    12.79180   -2.45673   46.33121
      H    H9217    12.18561   -2.43357   45.59078
      H    H9218    12.48721   -3.18843   46.86793
      O    O9219    14.22183    1.27130   44.94215
      H    H9220    15.17401    1.18710   44.89217
      H    H9221    14.07466    1.93547   45.61553
      O    O9222    17.11275    0.65072   30.44134
      H    H9223    16.82690    0.23723   29.62676
      H    H9224    16.91471    1.57949   30.32139
      O    O9225     1.67511   -6.07737   45.32727
      H    H9226     2.17902   -6.65664   45.89889
      H    H9227     0.93586   -5.79335   45.86491
      O    O9228     8.57748   -3.35595   28.88190
      H    H9229     8.47254   -3.97072   29.60804
      H    H9230     8.40990   -3.87936   28.09820
      O    O9231     8.72891   -4.67027   44.86082
      H    H9232     7.96348   -4.10177   44.77629
      H    H9233     8.91050   -4.96265   43.96765
      O    O9234    11.81775   -4.29395   29.48610
      H    H9235    11.26876   -3.84702   30.13037
      H    H9236    12.43968   -4.79902   30.00987
      O    O9237    15.87124   -2.93974   45.41832
      H    H9238    16.61219   -2.60216   44.91507
      H    H9239    15.10851   -2.77053   44.86530
      O    O9240     3.70742   -7.93441   46.22228
      H    H9241     3.74796   -8.23302   47.13080
      H    H9242     4.56197   -7.53365   46.06303
      O    O9243     7.48526   -5.33486   31.38263
      H    H9244     7.90690   -5.50087   32.22577
      H    H9245     7.61035   -6.14483   30.88814
      O    O9246     5.64800   -9.35520   44.18973
      H    H9247     5.11765   -9.84611   43.56206
      H    H9248     6.31681   -8.92678   43.65552
      O    O9249     9.99803   -6.31110   28.63034
      H    H9250    10.51859   -7.02619   28.26445
      H    H9251    10.64487   -5.67251   28.93039
      O    O9252    14.54581   -4.88826   43.95385
      H    H9253    14.95991   -4.73375   44.80289
      H    H9254    13.61091   -4.76273   44.11642
      O    O9255    15.01803   -7.54864   45.95776
      H    H9256    15.60010   -8.30341   45.86981
      H    H9257    15.19420   -7.01790   45.18091
      O    O9258     9.30733   -4.93621   41.92344
      H    H9259     9.72614   -4.09293   41.75106
      H    H9260     8.38820   -4.79900   41.69412
      O    O9261    11.64372   -7.20459   43.30722
      H    H9262    11.76334   -7.80048   44.04671
      H    H9263    12.50312   -7.16762   42.88735
      O    O9264    13.98251   -6.65087   41.88347
      H    H9265    13.45603   -6.12661   41.27999
      H    H9266    14.32565   -6.01813   42.51445
      O    O9267     7.15807    1.36909   43.03921
      H    H9268     6.62018    2.09370   42.72008
      H    H9269     7.41147    0.89213   42.24895
      O    O9270    10.01430    2.60421   43.29788
      H    H9271     9.94017    3.50773   43.60511
      H    H9272     9.11218    2.28540   43.27008
      O    O9273    10.56283    1.77007   30.92051
      H    H9274    11.45791    2.10856   30.94239
      H    H9275    10.59459    1.04801   30.29294
      O    O9276     4.20244   -2.85723   29.14921
      H    H9277     4.63993   -2.31426   29.80497
      H    H9278     4.68722   -3.68253   29.15885
      O    O9279     1.41702   -0.06833   36.60124
      H    H9280     1.74733   -0.93622   36.36910
      H    H9281     1.84612    0.13753   37.43173
      O    O9282     6.01322   -1.73743   34.26144
      H    H9283     5.71277   -1.86093   35.16183
      H    H9284     5.90697   -2.59657   33.85301
      O    O9285     1.90605    0.79873   39.33940
      H    H9286     1.46914    0.97881   40.17182
      H    H9287     2.47381    1.55619   39.19757
      O    O9288    17.54226    0.30043   43.62713
      H    H9289    16.94246    0.35969   42.88352
      H    H9290    17.67165   -0.63907   43.75682
      O    O9291    18.78241   -1.95779   28.96410
      H    H9292    17.95170   -1.89012   29.43483
      H    H9293    18.95959   -1.06737   28.66079
      O    O9294    18.23805   -5.21304   31.46752
      H    H9295    18.99995   -4.64337   31.57349
      H    H9296    18.25349   -5.78032   32.23835
      O    O9297     1.73849   -6.68924   35.69829
      H    H9298     1.08337   -6.95808   35.05426
      H    H9299     2.57628   -6.79880   35.24849
      O    O9300    19.24405   -4.35803   36.31172
      H    H9301    19.61493   -5.14130   35.90531
      H    H9302    19.88424   -3.66912   36.13345
      O    O9303    16.22743   -2.97437   41.72475
      H    H9304    15.41341   -2.54465   41.98733
      H    H9305    16.63485   -2.36253   41.11165
      O    O9306    18.28997   -4.91960   28.62478
      H    H9307    18.56486   -4.01171   28.49670
      H    H9308    18.10105   -4.98335   29.56097
      O    O9309    18.18651   -6.98270   33.61772
      H    H9310    17.81087   -7.74991   33.18585
      H    H9311    17.45682   -6.60043   34.10521
      O    O9312     2.77608   -6.30399   40.23862
      H    H9313     3.14339   -6.39125   41.11823
      H    H9314     2.20716   -7.06733   40.13931
      O    O9315    17.57647   -7.83555   43.25167
      H    H9316    17.34508   -8.06427   42.35147
      H    H9317    17.83692   -6.91559   43.20616
      O    O9318     2.32768   -9.39308   44.14447
      H    H9319     1.43329   -9.42640   44.48384
      H    H9320     2.86744   -9.19440   44.90959
      O    O9321     0.95230   -9.47935   31.64082
      H    H9322     0.04870   -9.21633   31.46599
      H    H9323     1.43636   -9.20823   30.86082
      O    O9324    17.46160   -8.75695   36.91844
      H    H9325    17.98535   -9.25069   36.28746
      H    H9326    18.04754   -8.62192   37.66320
      O    O9327    17.64057   -8.67297   40.44040
      H    H9328    16.69084   -8.70661   40.55490
      H    H9329    17.82187   -7.76295   40.20537
      O    O9330    16.28503    1.77749   35.25158
      H    H9331    16.88094    1.45595   34.57502
      H    H9332    16.54285    1.30467   36.04290
      O    O9333     4.19129   -1.79072   45.40064
      H    H9334     4.14825   -2.16143   46.28208
      H    H9335     4.32239   -0.85296   45.54082
      O    O9336     7.89189   -0.23476   41.00161
      H    H9337     7.65103    0.03270   40.11466
      H    H9338     8.83216   -0.06419   41.05670
      O    O9339    19.15231    1.78468   41.80267
      H    H9340    18.65814    2.18157   41.08539
      H    H9341    18.54364    1.15960   42.19640
      O    O9342     4.03009    1.15551   42.52042
      H    H9343     3.43612    1.02398   43.25942
      H    H9344     4.02248    0.31932   42.05463
      O    O9345    16.83625    2.42702   39.08135
      H    H9346    16.37655    3.17860   38.70715
      H    H9347    16.20750    1.70767   39.02283
      O    O9348     3.66132   -1.47866   41.47122
      H    H9349     2.93472   -2.09813   41.40382
      H    H9350     3.72223   -1.08459   40.60103
      O    O9351     7.26583    0.73584   38.25616
      H    H9352     7.78233    0.12458   37.73099
      H    H9353     7.91556    1.23872   38.74726
      O    O9354    10.00538    1.62669   39.08306
      H    H9355    10.29316    1.37212   38.20636
      H    H9356    10.51770    1.07443   39.67362
      O    O9357     1.94432    1.83878   34.68090
      H    H9358     1.77652    1.20585   35.37909
      H    H9359     1.07777    2.04472   34.33032
      O    O9360     3.55059    0.53211   32.12591
      H    H9361     3.02535    0.91291   31.42211
      H    H9362     3.47504    1.15718   32.84688
      O    O9363    10.07261    2.54830   46.44988
      H    H9364    10.99934    2.31273   46.49348
      H    H9365    10.05765    3.37550   45.96848
      O    O9366    18.30712    2.09086   33.44730
      H    H9367    18.48234    1.40463   32.80340
      H    H9368    17.60927    2.61557   33.05497
      O    O9369     6.14988    2.48034   31.00084
      H    H9370     6.88176    2.19627   30.45322
      H    H9371     6.40925    2.24167   31.89077
      O    O9372     5.31136   -1.40318   31.00547
      H    H9373     4.68225   -0.93467   31.55405
      H    H9374     5.42614   -2.24826   31.44009
      O    O9375    16.64037    1.77529   46.27398
      H    H9376    17.43290    1.28021   46.06658
      H    H9377    16.93368    2.45430   46.88154
      O    O9378    31.54068   -7.35262   35.92994
      H    H9379    31.46009   -8.26716   35.65911
      H    H9380    31.12713   -6.85591   35.22391
      O    O9381    29.67249   -5.57471   37.81086
      H    H9382    28.89670   -6.05467   38.10072
      H    H9383    30.32378   -6.25415   37.63648
      O    O9384    23.68907   -5.26273   38.68844
      H    H9385    22.85756   -5.51786   39.08809
      H    H9386    24.29717   -5.19166   39.42423
      O    O9387    33.69323   -1.16870   36.59078
      H    H9388    33.23138   -1.93997   36.91949
      H    H9389    34.50579   -1.14209   37.09602
      O    O9390    23.66920   -1.22872   38.88424
      H    H9391    23.97200   -2.11895   38.70526
      H    H9392    24.41356   -0.67170   38.65647
      O    O9393    20.06157   -7.70198   38.35665
      H    H9394    20.63318   -8.46976   38.35701
      H    H9395    20.06172   -7.40310   37.44731
      O    O9396    29.91956    1.11711   36.21118
      H    H9397    29.30071    1.57286   35.64062
      H    H9398    30.77474    1.27225   35.81015
      O    O9399    29.11339   -2.89900   37.81788
      H    H9400    29.04421   -3.84000   37.65679
      H    H9401    29.87537   -2.80885   38.39014
      O    O9402    26.11518   -8.75076   37.83904
      H    H9403    26.62300   -8.25266   38.47954
      H    H9404    26.64650   -9.52724   37.66297
      O    O9405    30.78590   -3.99897   33.60437
      H    H9406    30.16762   -3.53403   33.04064
      H    H9407    31.29822   -3.30622   34.02132
      O    O9408    25.64907   -4.47138   40.28273
      H    H9409    25.31601   -3.84449   40.92483
      H    H9410    25.82574   -3.94520   39.50289
      O    O9411    24.86098   -2.50330   42.09765
      H    H9412    25.47838   -1.82820   41.81609
      H    H9413    24.00029   -2.09451   42.00640
      O    O9414    20.15422   -3.31332   30.97833
      H    H9415    19.77701   -2.82461   30.24682
      H    H9416    20.41152   -2.64079   31.60898
      O    O9417    35.77874   -1.03936   40.01311
      H    H9418    35.09509   -0.36945   40.00478
      H    H9419    36.31817   -0.84130   39.24760
      O    O9420    33.31462    0.80505   38.72763
      H    H9421    33.32733    0.40128   37.85985
      H    H9422    32.76214    1.57978   38.62377
      O    O9423    34.60916   -2.47333   33.81664
      H    H9424    34.49879   -3.41589   33.94159
      H    H9425    34.60598   -2.11176   34.70292
      O    O9426    32.71316   -4.29197   40.05589
      H    H9427    33.13004   -4.50595   39.22123
      H    H9428    33.43714   -4.03469   40.62675
      O    O9429    30.15119   -6.84680   33.17289
      H    H9430    29.22411   -6.91306   33.40174
      H    H9431    30.30367   -5.90878   33.05842
      O    O9432    36.65937   -5.89324   40.14751
      H    H9433    35.83123   -5.82393   39.67253
      H    H9434    37.25442   -5.30781   39.67910
      O    O9435    34.18091   -5.28477   33.67642
      H    H9436    33.56216   -5.62281   33.02905
      H    H9437    34.16336   -5.92879   34.38434
      O    O9438    33.62357   -9.10631   41.09300
      H    H9439    33.21069   -8.28094   41.34700
      H    H9440    32.89117   -9.69181   40.90064
      O    O9441    25.75685   -6.32032   35.95487
      H    H9442    25.35255   -7.03260   35.45946
      H    H9443    25.84316   -6.66500   36.84367
      O    O9444    26.22502   -2.63357   38.11879
      H    H9445    25.92785   -3.23902   37.43957
      H    H9446    27.17500   -2.59583   38.00772
      O    O9447    24.46971   -9.54600   39.73477
      H    H9448    25.02117   -9.43647   38.96010
      H    H9449    24.98406   -9.17224   40.45029
      O    O9450    34.31358    0.93962   41.78110
      H    H9451    33.83664    1.74684   41.58836
      H    H9452    33.62976    0.28745   41.93372
      O    O9453    25.31686   -2.89540   44.76957
      H    H9454    24.41972   -2.67140   45.01691
      H    H9455    25.34215   -2.77190   43.82071
      O    O9456    32.35738   -6.04608   30.68369
      H    H9457    32.79671   -6.88384   30.53748
      H    H9458    33.07023   -5.41314   30.77011
      O    O9459    24.14398   -6.02406   43.34530
      H    H9460    24.00476   -5.15178   43.71404
      H    H9461    23.26212   -6.36678   43.20010
      O    O9462    30.46692   -1.10648   34.65182
      H    H9463    30.90651   -0.36404   34.23736
      H    H9464    30.40561   -0.86382   35.57571
      O    O9465    25.94202   -0.08189   45.55382
      H    H9466    25.91356    0.32240   44.68666
      H    H9467    25.77852   -1.01086   45.39098
      O    O9468    22.45731   -7.42582   33.45553
      H    H9469    22.33707   -6.69961   32.84366
      H    H9470    22.14740   -8.19553   32.97832
      O    O9471    37.89350    0.70082   46.85024
      H    H9472    38.36947    1.17910   47.52914
      H    H9473    38.51422    0.63256   46.12479
      O    O9474    20.09585   -4.25431   39.26240
      H    H9475    20.17389   -4.11943   38.31797
      H    H9476    20.71002   -4.96272   39.45521
      O    O9477    21.34061   -2.55429   35.67301
      H    H9478    20.93342   -2.41283   34.81837
      H    H9479    22.23191   -2.83827   35.47013
      O    O9480    37.29683   -2.10790   44.01024
      H    H9481    37.42313   -2.34671   43.09196
      H    H9482    37.33896   -2.93945   44.48245
      O    O9483    31.15850    1.59490   42.57972
      H    H9484    31.67297    1.50570   43.38196
      H    H9485    30.31541    1.94087   42.87251
      O    O9486    33.13394    1.88043   32.00812
      H    H9487    32.97405    1.59073   32.90630
      H    H9488    32.96861    1.10445   31.47264
      O    O9489    25.61278    1.66029   33.78528
      H    H9490    25.43703    0.74384   33.57206
      H    H9491    24.75835    2.01902   34.02506
      O    O9492    32.83655   -0.61081   30.56792
      H    H9493    32.14307   -0.61308   29.90815
      H    H9494    33.57884   -1.03488   30.13734
      O    O9495    32.40155    1.01546   34.64277
      H    H9496    32.85724    0.23440   34.95663
      H    H9497    32.74080    1.72614   35.18689
      O    O9498    20.15180   -3.21289   41.80184
      H    H9499    20.31491   -3.68236   40.98378
      H    H9500    20.61705   -3.72054   42.46673
      O    O9501    31.30608   -8.49439   45.67098
      H    H9502    31.63142   -9.32802   45.33120
      H    H9503    32.09411   -7.97154   45.81881
      O    O9504    24.71510   -8.95896   34.56602
      H    H9505    24.48919   -9.17524   35.47069
      H    H9506    23.93435   -8.52611   34.22062
      O    O9507    31.94488   -8.95262   33.16509
      H    H9508    31.34577   -8.22904   32.98145
      H    H9509    32.49284   -9.01494   32.38273
      O    O9510    27.15502   -8.06040   45.23205
      H    H9511    27.05938   -9.00093   45.08209
      H    H9512    27.99822   -7.83889   44.83686
      O    O9513    31.13688   -7.72569   39.29049
      H    H9514    30.40499   -7.21701   39.63950
      H    H9515    30.73931   -8.54270   38.98937
      O    O9516    26.64878   -7.73895   30.08475
      H    H9517    26.08047   -8.18713   29.45834
      H    H9518    27.35768   -7.37967   29.55126
      O    O9519    21.72570   -3.83775   43.96142
      H    H9520    21.34118   -4.47838   44.55972
      H    H9521    22.03692   -3.13414   44.53090
      O    O9522    27.87541   -6.99010   39.44228
      H    H9523    28.24243   -7.46424   40.18842
      H    H9524    27.68592   -6.11594   39.78312
      O    O9525    25.66535   -7.94923   41.76071
      H    H9526    25.36106   -7.07003   41.98574
      H    H9527    26.62000   -7.88925   41.79645
      O    O9528    24.19353   -3.74313   32.35739
      H    H9529    23.41976   -4.28337   32.19726
      H    H9530    24.92299   -4.26247   32.01917
      O    O9531    34.95233   -4.74660   38.15003
      H    H9532    35.67224   -4.25107   37.75964
      H    H9533    34.75051   -5.42481   37.50542
      O    O9534    30.33421   -4.67569   44.03693
      H    H9535    30.26794   -5.59612   43.78269
      H    H9536    29.70472   -4.57815   44.75139
      O    O9537    33.12816   -8.98084   30.58918
      H    H9538    34.01612   -8.66911   30.41432
      H    H9539    33.09867   -9.85361   30.19724
      O    O9540    24.23727   -4.07509   35.99527
      H    H9541    24.75514   -4.87827   35.94096
      H    H9542    23.78567   -4.13718   36.83695
      O    O9543    29.12422   -2.80847   31.26800
      H    H9544    29.46579   -2.06424   30.77233
      H    H9545    28.29549   -2.49535   31.63048
      O    O9546    21.72172   -7.10896   42.90784
      H    H9547    21.36322   -6.44357   43.49518
      H    H9548    21.42718   -7.94060   43.27910
      O    O9549    24.92304   -6.65053   45.79180
      H    H9550    24.62305   -6.50482   44.89458
      H    H9551    25.69416   -7.21000   45.69914
      O    O9552    30.26588   -1.85363   43.78731
      H    H9553    30.28033   -2.78554   43.56920
      H    H9554    29.55839   -1.76766   44.42629
      O    O9555    35.39959   -7.66965   30.05717
      H    H9556    35.31596   -7.23823   29.20681
      H    H9557    36.11901   -7.20982   30.48985
      O    O9558    36.47700   -5.21290   43.13417
      H    H9559    35.75182   -4.62002   42.93711
      H    H9560    37.00455   -5.22055   42.33550
      O    O9561    36.42831   -0.81543   32.78538
      H    H9562    35.78593   -1.46986   33.05976
      H    H9563    36.04138   -0.40992   32.00945
      O    O9564    32.00696   -3.48688   36.63255
      H    H9565    32.35934   -4.08407   35.97269
      H    H9566    31.12319   -3.81246   36.80338
      O    O9567    28.09329   -2.72711   34.03959
      H    H9568    28.78040   -2.18019   34.42035
      H    H9569    27.30653   -2.18304   34.07455
      O    O9570    20.23253   -7.10983   29.53130
      H    H9571    21.10201   -6.82735   29.81489
      H    H9572    19.74156   -6.29624   29.41618
      O    O9573    27.39601   -5.72251   33.65213
      H    H9574    27.85229   -4.91199   33.87815
      H    H9575    27.04483   -6.04020   34.48398
      O    O9576    29.69927   -0.21188   40.88136
      H    H9577    30.34349   -0.00594   41.55870
      H    H9578    30.06221   -0.97304   40.42844
      O    O9579    30.97248   -2.20864   39.59910
      H    H9580    31.61470   -2.90933   39.71232
      H    H9581    31.49741   -1.42880   39.41879
      O    O9582    34.81805   -1.92378   29.32302
      H    H9583    34.59181   -2.64074   29.91548
      H    H9584    34.42767   -2.17254   28.48519
      O    O9585    32.74624   -1.40915   42.80271
      H    H9586    33.08186   -0.82248   43.48050
      H    H9587    31.82627   -1.53988   43.03249
      O    O9588    20.59965    2.10291   30.09746
      H    H9589    20.95942    2.70184   29.44319
      H    H9590    20.45889    2.64890   30.87097
      O    O9591    34.39968   -4.00659   30.98443
      H    H9592    34.11185   -3.54532   31.77222
      H    H9593    35.19489   -4.46681   31.25286
      O    O9594    20.58384    0.36839   44.57170
      H    H9595    20.69295   -0.57213   44.43124
      H    H9596    19.93190    0.63387   43.92308
      O    O9597    28.57510   -1.36002   45.97152
      H    H9598    28.25479   -2.07909   46.51609
      H    H9599    27.90093   -0.68451   46.04512
      O    O9600    26.61652   -0.51397   30.91483
      H    H9601    26.60753    0.21900   30.29928
      H    H9602    25.69635   -0.76082   31.00753
      O    O9603    22.21718   -5.29248   31.65951
      H    H9604    21.60997   -4.55259   31.66904
      H    H9605    22.69211   -5.20255   30.83333
      O    O9606    29.60248   -0.45115   29.57735
      H    H9607    29.70367   -0.65475   28.64755
      H    H9608    28.70265   -0.70532   29.78213
      O    O9609    28.75066   -8.47344   41.55899
      H    H9610    29.24918   -7.99886   42.22418
      H    H9611    28.89295   -9.39709   41.76600
      O    O9612    28.24429    2.06748   34.27212
      H    H9613    28.49844    2.02962   33.35005
      H    H9614    27.29553    1.94082   34.26494
      O    O9615    34.24954   -7.01333   35.84797
      H    H9616    33.30856   -6.99831   36.02274
      H    H9617    34.56395   -7.79973   36.29400
      O    O9618    24.22771   -5.33137   29.40836
      H    H9619    24.99404   -5.44323   29.97091
      H    H9620    24.30518   -6.02757   28.75604
      O    O9621    22.92238   -7.89886   30.09165
      H    H9622    23.00274   -8.84611   30.20339
      H    H9623    23.81436   -7.56817   30.19772
      O    O9624    36.25210    0.15756   37.52339
      H    H9625    36.37684    0.98067   37.99578
      H    H9626    37.11866   -0.05337   37.17581
      O    O9627    23.72386    2.25068   37.19511
      H    H9628    24.46010    1.70222   37.46596
      H    H9629    24.10795    3.11628   37.05571
      O    O9630    20.60840   -1.68197   33.06926
      H    H9631    19.68238   -1.43985   33.05980
      H    H9632    21.07405   -0.85454   32.94773
      O    O9633    22.72968    1.43528   46.38367
      H    H9634    23.53096    1.75649   46.79721
      H    H9635    22.21487    1.07484   47.10566
      O    O9636    26.83409    1.42371   29.01766
      H    H9637    27.62695    1.71259   28.56584
      H    H9638    26.31452    0.99292   28.33891
      O    O9639    31.56615   -2.45673   46.33121
      H    H9640    30.95996   -2.43357   45.59078
      H    H9641    31.26156   -3.18843   46.86793
      O    O9642    32.99618    1.27130   44.94215
      H    H9643    33.94836    1.18710   44.89217
      H    H9644    32.84901    1.93547   45.61553
      O    O9645    35.88710    0.65072   30.44134
      H    H9646    35.60125    0.23723   29.62676
      H    H9647    35.68906    1.57949   30.32139
      O    O9648    20.44946   -6.07737   45.32727
      H    H9649    20.95337   -6.65664   45.89889
      H    H9650    19.71021   -5.79335   45.86491
      O    O9651    27.35183   -3.35595   28.88190
      H    H9652    27.24689   -3.97072   29.60804
      H    H9653    27.18425   -3.87936   28.09820
      O    O9654    27.50326   -4.67027   44.86082
      H    H9655    26.73783   -4.10177   44.77629
      H    H9656    27.68485   -4.96265   43.96765
      O    O9657    30.59210   -4.29395   29.48610
      H    H9658    30.04311   -3.84702   30.13037
      H    H9659    31.21403   -4.79902   30.00987
      O    O9660    34.64559   -2.93974   45.41832
      H    H9661    35.38654   -2.60216   44.91507
      H    H9662    33.88286   -2.77053   44.86530
      O    O9663    22.48177   -7.93441   46.22228
      H    H9664    22.52231   -8.23302   47.13080
      H    H9665    23.33632   -7.53365   46.06303
      O    O9666    26.25961   -5.33486   31.38263
      H    H9667    26.68125   -5.50087   32.22577
      H    H9668    26.38470   -6.14483   30.88814
      O    O9669    24.42235   -9.35520   44.18973
      H    H9670    23.89200   -9.84611   43.56206
      H    H9671    25.09116   -8.92678   43.65552
      O    O9672    28.77238   -6.31110   28.63034
      H    H9673    29.29294   -7.02619   28.26445
      H    H9674    29.41922   -5.67251   28.93039
      O    O9675    33.32016   -4.88826   43.95385
      H    H9676    33.73426   -4.73375   44.80289
      H    H9677    32.38526   -4.76273   44.11642
      O    O9678    33.79238   -7.54864   45.95776
      H    H9679    34.37445   -8.30341   45.86981
      H    H9680    33.96855   -7.01790   45.18091
      O    O9681    28.08168   -4.93621   41.92344
      H    H9682    28.50049   -4.09293   41.75106
      H    H9683    27.16255   -4.79900   41.69412
      O    O9684    30.41807   -7.20459   43.30722
      H    H9685    30.53769   -7.80048   44.04671
      H    H9686    31.27747   -7.16762   42.88735
      O    O9687    32.75686   -6.65087   41.88347
      H    H9688    32.23038   -6.12661   41.27999
      H    H9689    33.10000   -6.01813   42.51445
      O    O9690    25.93242    1.36909   43.03921
      H    H9691    25.39453    2.09370   42.72008
      H    H9692    26.18582    0.89213   42.24895
      O    O9693    28.78865    2.60421   43.29788
      H    H9694    28.71452    3.50773   43.60511
      H    H9695    27.88653    2.28540   43.27008
      O    O9696    29.33718    1.77007   30.92051
      H    H9697    30.23226    2.10856   30.94239
      H    H9698    29.36894    1.04801   30.29294
      O    O9699    22.97679   -2.85723   29.14921
      H    H9700    23.41428   -2.31426   29.80497
      H    H9701    23.46157   -3.68253   29.15885
      O    O9702    20.19137   -0.06833   36.60124
      H    H9703    20.52168   -0.93622   36.36910
      H    H9704    20.62047    0.13753   37.43173
      O    O9705    24.78757   -1.73743   34.26144
      H    H9706    24.48712   -1.86093   35.16183
      H    H9707    24.68132   -2.59657   33.85301
      O    O9708    20.68040    0.79873   39.33940
      H    H9709    20.24349    0.97881   40.17182
      H    H9710    21.24816    1.55619   39.19757
      O    O9711    36.31661    0.30043   43.62713
      H    H9712    35.71681    0.35969   42.88352
      H    H9713    36.44600   -0.63907   43.75682
      O    O9714    37.55676   -1.95779   28.96410
      H    H9715    36.72605   -1.89012   29.43483
      H    H9716    37.73394   -1.06737   28.66079
      O    O9717    37.01240   -5.21304   31.46752
      H    H9718    37.77430   -4.64337   31.57349
      H    H9719    37.02784   -5.78032   32.23835
      O    O9720    20.51284   -6.68924   35.69829
      H    H9721    19.85772   -6.95808   35.05426
      H    H9722    21.35063   -6.79880   35.24849
      O    O9723    38.01840   -4.35803   36.31172
      H    H9724    38.38928   -5.14130   35.90531
      H    H9725    38.65859   -3.66912   36.13345
      O    O9726    35.00178   -2.97437   41.72475
      H    H9727    34.18776   -2.54465   41.98733
      H    H9728    35.40920   -2.36253   41.11165
      O    O9729    37.06432   -4.91960   28.62478
      H    H9730    37.33921   -4.01171   28.49670
      H    H9731    36.87540   -4.98335   29.56097
      O    O9732    36.96086   -6.98270   33.61772
      H    H9733    36.58522   -7.74991   33.18585
      H    H9734    36.23117   -6.60043   34.10521
      O    O9735    21.55043   -6.30399   40.23862
      H    H9736    21.91774   -6.39125   41.11823
      H    H9737    20.98151   -7.06733   40.13931
      O    O9738    36.35082   -7.83555   43.25167
      H    H9739    36.11943   -8.06427   42.35147
      H    H9740    36.61127   -6.91559   43.20616
      O    O9741    21.10203   -9.39308   44.14447
      H    H9742    20.20764   -9.42640   44.48384
      H    H9743    21.64179   -9.19440   44.90959
      O    O9744    19.72665   -9.47935   31.64082
      H    H9745    18.82305   -9.21633   31.46599
      H    H9746    20.21071   -9.20823   30.86082
      O    O9747    36.23595   -8.75695   36.91844
      H    H9748    36.75970   -9.25069   36.28746
      H    H9749    36.82189   -8.62192   37.66320
      O    O9750    36.41492   -8.67297   40.44040
      H    H9751    35.46519   -8.70661   40.55490
      H    H9752    36.59622   -7.76295   40.20537
      O    O9753    35.05938    1.77749   35.25158
      H    H9754    35.65529    1.45595   34.57502
      H    H9755    35.31720    1.30467   36.04290
      O    O9756    22.96564   -1.79072   45.40064
      H    H9757    22.92260   -2.16143   46.28208
      H    H9758    23.09674   -0.85296   45.54082
      O    O9759    26.66624   -0.23476   41.00161
      H    H9760    26.42538    0.03270   40.11466
      H    H9761    27.60651   -0.06419   41.05670
      O    O9762    37.92666    1.78468   41.80267
      H    H9763    37.43249    2.18157   41.08539
      H    H9764    37.31799    1.15960   42.19640
      O    O9765    22.80444    1.15551   42.52042
      H    H9766    22.21047    1.02398   43.25942
      H    H9767    22.79683    0.31932   42.05463
      O    O9768    35.61060    2.42702   39.08135
      H    H9769    35.15090    3.17860   38.70715
      H    H9770    34.98185    1.70767   39.02283
      O    O9771    22.43567   -1.47866   41.47122
      H    H9772    21.70907   -2.09813   41.40382
      H    H9773    22.49658   -1.08459   40.60103
      O    O9774    26.04018    0.73584   38.25616
      H    H9775    26.55668    0.12458   37.73099
      H    H9776    26.68991    1.23872   38.74726
      O    O9777    28.77973    1.62669   39.08306
      H    H9778    29.06751    1.37212   38.20636
      H    H9779    29.29205    1.07443   39.67362
      O    O9780    20.71867    1.83878   34.68090
      H    H9781    20.55087    1.20585   35.37909
      H    H9782    19.85212    2.04472   34.33032
      O    O9783    22.32494    0.53211   32.12591
      H    H9784    21.79970    0.91291   31.42211
      H    H9785    22.24939    1.15718   32.84688
      O    O9786    28.84696    2.54830   46.44988
      H    H9787    29.77369    2.31273   46.49348
      H    H9788    28.83200    3.37550   45.96848
      O    O9789    37.08147    2.09086   33.44730
      H    H9790    37.25669    1.40463   32.80340
      H    H9791    36.38362    2.61557   33.05497
      O    O9792    24.92423    2.48034   31.00084
      H    H9793    25.65611    2.19627   30.45322
      H    H9794    25.18360    2.24167   31.89077
      O    O9795    24.08571   -1.40318   31.00547
      H    H9796    23.45660   -0.93467   31.55405
      H    H9797    24.20049   -2.24826   31.44009
      O    O9798    35.41472    1.77529   46.27398
      H    H9799    36.20725    1.28021   46.06658
      H    H9800    35.70803    2.45430   46.88154
      O    O9801    -6.00802   11.42173   35.92994
      H    H9802    -6.08861   10.50719   35.65911
      H    H9803    -6.42157   11.91844   35.22391
      O    O9804    -7.87621   13.19964   37.81086
      H    H9805    -8.65200   12.71968   38.10072
      H    H9806    -7.22492   12.52020   37.63648
      O    O9807    -3.85547   17.60565   36.59078
      H    H9808    -4.31732   16.83438   36.91949
      H    H9809    -3.04291   17.63226   37.09602
      O    O9810    -7.62914   19.89146   36.21118
      H    H9811    -8.24799   20.34721   35.64062
      H    H9812    -6.77396   20.04660   35.81015
      O    O9813    -8.43531   15.87535   37.81788
      H    H9814    -8.50449   14.93435   37.65679
      H    H9815    -7.67333   15.96550   38.39014
      O    O9816    -7.40480    8.68239   38.04477
      H    H9817    -7.02831    7.80958   37.93214
      H    H9818    -7.50285    9.01826   37.15382
      O    O9819    -3.62238    6.17744   34.97761
      H    H9820    -2.80142    5.68709   35.02016
      H    H9821    -3.58898    6.76720   35.73079
      O    O9822     0.66757    8.19411   41.54197
      H    H9823    -0.03721    8.58228   41.02348
      H    H9824     0.93336    8.88914   42.14406
      O    O9825    -6.76280   14.77538   33.60437
      H    H9826    -7.38108   15.24032   33.04064
      H    H9827    -6.25048   15.46813   34.02132
      O    O9828    -3.38624    8.11747   37.75036
      H    H9829    -4.09068    8.40596   38.33067
      H    H9830    -3.02502    8.92749   37.39032
      O    O9831    -1.76996   17.73499   40.01311
      H    H9832    -2.45361   18.40490   40.00478
      H    H9833    -1.23053   17.93305   39.24760
      O    O9834    -0.31754    7.56295   38.14128
      H    H9835    -1.26505    7.59685   38.27283
      H    H9836     0.00745    8.37685   38.52622
      O    O9837    -4.23408   19.57940   38.72763
      H    H9838    -4.22137   19.17563   37.85985
      H    H9839    -4.78656   20.35413   38.62377
      O    O9840    -2.93954   16.30102   33.81664
      H    H9841    -3.04991   15.35846   33.94159
      H    H9842    -2.94272   16.66259   34.70292
      O    O9843    -4.83554   14.48238   40.05589
      H    H9844    -4.41866   14.26840   39.22123
      H    H9845    -4.11156   14.73966   40.62675
      O    O9846    -7.39751   11.92755   33.17289
      H    H9847    -8.32459   11.86129   33.40174
      H    H9848    -7.24503   12.86557   33.05842
      O    O9849    -7.41061    8.19925   30.16961
      H    H9850    -8.35024    8.36065   30.25486
      H    H9851    -7.09228    8.91782   29.62321
      O    O9852    -0.88933   12.88111   40.14751
      H    H9853    -1.71747   12.95042   39.67253
      H    H9854    -0.29428   13.46654   39.67910
      O    O9855    -3.36779   13.48958   33.67642
      H    H9856    -3.98654   13.15154   33.02905
      H    H9857    -3.38534   12.84556   34.38434
      O    O9858    -3.92513    9.66804   41.09300
      H    H9859    -4.33801   10.49341   41.34700
      H    H9860    -4.65753    9.08254   40.90064
      O    O9861    -3.23512   19.71397   41.78110
      H    H9862    -3.71206   20.52119   41.58836
      H    H9863    -3.91894   19.06180   41.93372
      O    O9864    -5.19132   12.72827   30.68369
      H    H9865    -4.75199   11.89051   30.53748
      H    H9866    -4.47847   13.36121   30.77011
      O    O9867    -7.08178   17.66787   34.65182
      H    H9868    -6.64219   18.41031   34.23736
      H    H9869    -7.14309   17.91053   35.57571
      O    O9870    -1.60960    3.98255   28.99780
      H    H9871    -1.92234    4.07523   29.89770
      H    H9872    -0.84835    4.56065   28.94754
      O    O9873     0.34480   19.47517   46.85024
      H    H9874     0.82077   19.95345   47.52914
      H    H9875     0.96552   19.40691   46.12479
      O    O9876    -0.25187   16.66645   44.01024
      H    H9877    -0.12557   16.42764   43.09196
      H    H9878    -0.20974   15.83490   44.48245
      O    O9879    -6.39020   20.36925   42.57972
      H    H9880    -5.87573   20.28005   43.38196
      H    H9881    -7.23329   20.71522   42.87251
      O    O9882    -4.41476   20.65478   32.00812
      H    H9883    -4.57465   20.36508   32.90630
      H    H9884    -4.58009   19.87880   31.47264
      O    O9885    -4.71215   18.16354   30.56792
      H    H9886    -5.40563   18.16127   29.90815
      H    H9887    -3.96986   17.73947   30.13734
      O    O9888    -5.14715   19.78981   34.64277
      H    H9889    -4.69146   19.00875   34.95663
      H    H9890    -4.80790   20.50049   35.18689
      O    O9891    -0.39947    8.71970   44.97521
      H    H9892    -1.01505    9.22766   44.44676
      H    H9893    -0.71983    7.81953   44.91781
      O    O9894    -8.33804    7.55889   42.44143
      H    H9895    -8.80010    7.76719   43.25342
      H    H9896    -8.74023    6.74482   42.13850
      O    O9897    -3.33759    8.77978   43.57110
      H    H9898    -4.18823    8.48036   43.89200
      H    H9899    -3.49741    9.02398   42.65948
      O    O9900    -6.24262   10.27996   45.67098
      H    H9901    -5.91728    9.44633   45.33120
      H    H9902    -5.45459   10.80281   45.81881
      O    O9903    -5.60382    9.82173   33.16509
      H    H9904    -6.20293   10.54531   32.98145
      H    H9905    -5.05586    9.75941   32.38273
      O    O9906    -6.99734    8.45808   35.19542
      H    H9907    -6.60438    8.77530   34.38229
      H    H9908    -6.63565    7.57927   35.30987
      O    O9909    -8.68812    7.20881   46.45510
      H    H9910    -9.37829    7.01603   47.08971
      H    H9911    -7.94489    7.49228   46.98753
      O    O9912    -6.41182   11.04866   39.29049
      H    H9913    -7.14371   11.55734   39.63950
      H    H9914    -6.80939   10.23165   38.98937
      O    O9915    -5.94923    6.50202   38.70279
      H    H9916    -5.93196    6.95289   39.54697
      H    H9917    -6.19767    5.60259   38.91613
      O    O9918    -2.52216    3.91524   44.54143
      H    H9919    -2.19758    3.18421   45.06722
      H    H9920    -2.48651    3.59661   43.63953
      O    O9921    -2.59637   14.02775   38.15003
      H    H9922    -1.87646   14.52328   37.75964
      H    H9923    -2.79819   13.34954   37.50542
      O    O9924    -7.13538    5.42155   32.29297
      H    H9925    -7.94892    4.92287   32.21750
      H    H9926    -7.32918    6.26137   31.87660
      O    O9927    -7.21449   14.09866   44.03693
      H    H9928    -7.28076   13.17823   43.78269
      H    H9929    -7.84398   14.19620   44.75139
      O    O9930    -4.42054    9.79351   30.58918
      H    H9931    -3.53258   10.10524   30.41432
      H    H9932    -4.45003    8.92074   30.19724
      O    O9933    -8.42448   15.96588   31.26800
      H    H9934    -8.08291   16.71011   30.77233
      H    H9935    -9.25321   16.27900   31.63048
      O    O9936    -7.28282   16.92072   43.78731
      H    H9937    -7.26837   15.98881   43.56920
      H    H9938    -7.99031   17.00669   44.42629
      O    O9939    -2.14911   11.10470   30.05717
      H    H9940    -2.23274   11.53612   29.20681
      H    H9941    -1.42969   11.56453   30.48985
      O    O9942    -1.07170   13.56145   43.13417
      H    H9943    -1.79688   14.15433   42.93711
      H    H9944    -0.54415   13.55380   42.33550
      O    O9945    -1.12039   17.95892   32.78538
      H    H9946    -1.76277   17.30449   33.05976
      H    H9947    -1.50732   18.36443   32.00945
      O    O9948    -5.54174   15.28747   36.63255
      H    H9949    -5.18936   14.69028   35.97269
      H    H9950    -6.42551   14.96189   36.80338
      O    O9951    -7.84943   18.56247   40.88136
      H    H9952    -7.20521   18.76841   41.55870
      H    H9953    -7.48649   17.80131   40.42844
      O    O9954    -6.57622   16.56571   39.59910
      H    H9955    -5.93400   15.86502   39.71232
      H    H9956    -6.05129   17.34555   39.41879
      O    O9957    -2.73065   16.85057   29.32302
      H    H9958    -2.95689   16.13361   29.91548
      H    H9959    -3.12103   16.60181   28.48519
      O    O9960    -4.80246   17.36520   42.80271
      H    H9961    -4.46684   17.95187   43.48050
      H    H9962    -5.72243   17.23447   43.03249
      O    O9963    -3.14902   14.76776   30.98443
      H    H9964    -3.43685   15.22903   31.77222
      H    H9965    -2.35381   14.30754   31.25286
      O    O9966    -5.75824    7.64695   41.33520
      H    H9967    -5.39016    6.82647   41.66315
      H    H9968    -6.61842    7.70714   41.75076
      O    O9969    -2.39204    6.60264   32.14395
      H    H9970    -3.02072    6.70721   31.42978
      H    H9971    -2.88685    6.82232   32.93334
      O    O9972    -7.94622   18.32320   29.57735
      H    H9973    -7.84503   18.11960   28.64755
      H    H9974    -8.84605   18.06903   29.78213
      O    O9975    -8.79804   10.30091   41.55899
      H    H9976    -8.29952   10.77549   42.22418
      H    H9977    -8.65575    9.37726   41.76600
      O    O9978    -6.39209    5.60630   34.99932
      H    H9979    -6.51531    5.62492   34.05027
      H    H9980    -5.44364    5.65420   35.11916
      O    O9981    -1.59136    6.51770   42.40183
      H    H9982    -2.09400    7.25824   42.74121
      H    H9983    -0.77569    6.90610   42.08551
      O    O9984    -3.29916   11.76102   35.84797
      H    H9985    -4.24014   11.77604   36.02274
      H    H9986    -2.98475   10.97462   36.29400
      O    O9987    -1.29660   18.93191   37.52339
      H    H9988    -1.17186   19.75502   37.99578
      H    H9989    -0.43004   18.72098   37.17581
      O    O9990    -5.98255   16.31762   46.33121
      H    H9991    -6.58874   16.34078   45.59078
      H    H9992    -6.28714   15.58592   46.86793
      O    O9993    -4.55252   20.04565   44.94215
      H    H9994    -3.60034   19.96145   44.89217
      H    H9995    -4.69969   20.70982   45.61553
      O    O9996    -1.66160   19.42507   30.44134
      H    H9997    -1.94745   19.01158   29.62676
      H    H9998    -1.85964   20.35384   30.32139
      O    O9999    -6.95660   14.48040   29.48610
      H    H10000    -7.50559   14.92733   30.13037
      H    H10001    -6.33467   13.97533   30.00987
      O    O10002    -2.90311   15.83461   45.41832
      H    H10003    -2.16216   16.17219   44.91507
      H    H10004    -3.66584   16.00382   44.86530
      O    O10005    -8.77632   12.46325   28.63034
      H    H10006    -8.25576   11.74816   28.26445
      H    H10007    -8.12948   13.10184   28.93039
      O    O10008    -4.22854   13.88609   43.95385
      H    H10009    -3.81444   14.04060   44.80289
      H    H10010    -5.16344   14.01162   44.11642
      O    O10011    -3.75632   11.22571   45.95776
      H    H10012    -3.17425   10.47094   45.86981
      H    H10013    -3.58015   11.75645   45.18091
      O    O10014    -7.13063   11.56976   43.30722
      H    H10015    -7.01101   10.97387   44.04671
      H    H10016    -6.27123   11.60673   42.88735
      O    O10017    -4.79184   12.12348   41.88347
      H    H10018    -5.31832   12.64774   41.27999
      H    H10019    -4.44870   12.75622   42.51445
      O    O10020    -5.54441    7.72848   44.79811
      H    H10021    -6.23286    7.06663   44.73311
      H    H10022    -4.82381    7.28230   45.24295
      O    O10023    -4.91437    4.32364   30.85713
      H    H10024    -4.63414    3.48043   31.21307
      H    H10025    -5.68779    4.55595   31.37101
      O    O10026    -8.76005   21.37856   43.29788
      H    H10027    -8.83418   22.28208   43.60511
      H    H10028    -9.66217   21.05975   43.27008
      O    O10029    -8.21152   20.54442   30.92051
      H    H10030    -7.31644   20.88291   30.94239
      H    H10031    -8.17976   19.82236   30.29294
      O    O10032    -1.23209   19.07478   43.62713
      H    H10033    -1.83189   19.13404   42.88352
      H    H10034    -1.10270   18.13528   43.75682
      O    O10035     0.00806   16.81656   28.96410
      H    H10036    -0.82265   16.88423   29.43483
      H    H10037     0.18524   17.70698   28.66079
      O    O10038    -0.53630   13.56131   31.46752
      H    H10039     0.22560   14.13098   31.57349
      H    H10040    -0.52086   12.99403   32.23835
      O    O10041     0.46970   14.41632   36.31172
      H    H10042     0.84058   13.63305   35.90531
      H    H10043     1.10989   15.10523   36.13345
      O    O10044    -2.54692   15.79998   41.72475
      H    H10045    -3.36094   16.22970   41.98733
      H    H10046    -2.13950   16.41182   41.11165
      O    O10047    -0.48438   13.85475   28.62478
      H    H10048    -0.20949   14.76264   28.49670
      H    H10049    -0.67330   13.79100   29.56097
      O    O10050    -4.08682    6.87923   29.92014
      H    H10051    -3.66833    6.69233   29.07980
      H    H10052    -4.39321    6.02714   30.23043
      O    O10053    -0.58784   11.79165   33.61772
      H    H10054    -0.96348   11.02444   33.18585
      H    H10055    -1.31753   12.17392   34.10521
      O    O10056    -1.19788   10.93880   43.25167
      H    H10057    -1.42927   10.71008   42.35147
      H    H10058    -0.93743   11.85876   43.20616
      O    O10059    -2.75908    6.16444   46.02964
      H    H10060    -1.88206    6.17278   46.41304
      H    H10061    -2.74699    5.42753   45.41888
      O    O10062    -1.31275   10.01740   36.91844
      H    H10063    -0.78900    9.52366   36.28746
      H    H10064    -0.72681   10.15243   37.66320
      O    O10065    -1.13378   10.10138   40.44040
      H    H10066    -2.08351   10.06774   40.55490
      H    H10067    -0.95248   11.01140   40.20537
      O    O10068    -1.82275    9.27473   32.85768
      H    H10069    -1.32684    9.04182   33.64257
      H    H10070    -2.02114    8.43592   32.44145
      O    O10071    -0.39404    7.91083   35.39145
      H    H10072    -0.50411    7.75643   36.32968
      H    H10073     0.36672    7.38292   35.14899
      O    O10074    -2.04746    3.85024   41.84975
      H    H10075    -1.41024    4.46365   42.21567
      H    H10076    -1.89997    3.88631   40.90467
      O    O10077     0.49499    5.74162   28.63207
      H    H10078     1.41992    5.60974   28.42389
      H    H10079     0.47257    5.82090   29.58571
      O    O10080     0.56884    6.51269   31.25774
      H    H10081    -0.22601    6.44720   31.78703
      H    H10082     0.77317    7.44775   31.24627
      O    O10083    -2.48932   20.55184   35.25158
      H    H10084    -1.89341   20.23030   34.57502
      H    H10085    -2.23150   20.07902   36.04290
      O    O10086    -8.67702    5.00286   44.75726
      H    H10087    -8.73813    5.59504   45.50680
      H    H10088    -7.73698    4.89546   44.61229
      O    O10089    -6.03956    4.65987   44.39649
      H    H10090    -5.42552    4.97779   43.73460
      H    H10091    -5.49460    4.17472   45.01608
      O    O10092     0.37796   20.55903   41.80267
      H    H10093    -0.11621   20.95592   41.08539
      H    H10094    -0.23071   19.93395   42.19640
      O    O10095    -5.29876    3.22308   40.72342
      H    H10096    -6.17277    3.55659   40.52071
      H    H10097    -5.40768    2.75040   41.54861
      O    O10098    -4.39156    5.43017   42.10759
      H    H10099    -4.72022    4.61534   41.72776
      H    H10100    -3.44333    5.38715   41.98416
      O    O10101    -1.93810   21.20137   39.08135
      H    H10102    -2.39780   21.95295   38.70715
      H    H10103    -2.56685   20.48202   39.02283
      O    O10104    -8.76897   20.40104   39.08306
      H    H10105    -8.48119   20.14647   38.20636
      H    H10106    -8.25665   19.84878   39.67362
      O    O10107    -7.55127    4.14006   39.66271
      H    H10108    -8.33409    4.61461   39.94239
      H    H10109    -7.84498    3.23555   39.55403
      O    O10110    -2.99917    4.84237   37.70762
      H    H10111    -2.55836    4.78688   36.85978
      H    H10112    -3.26841    5.75817   37.77864
      O    O10113    -1.13531    4.47390   35.71850
      H    H10114    -1.19647    3.53002   35.57160
      H    H10115    -0.35611    4.58191   36.26385
      O    O10116    -5.16335    3.22298   36.41262
      H    H10117    -4.56042    3.79500   36.88747
      H    H10118    -5.90405    3.78693   36.19001
      O    O10119    -2.01989    3.62514   31.68665
      H    H10120    -1.82483    4.52348   31.95339
      H    H10121    -2.80691    3.39385   32.17994
      O    O10122    -8.70174   21.32265   46.44988
      H    H10123    -7.77501   21.08708   46.49348
      H    H10124    -8.71670   22.14985   45.96848
      O    O10125    -0.46723   20.86521   33.44730
      H    H10126    -0.29201   20.17898   32.80340
      H    H10127    -1.16508   21.38992   33.05497
      O    O10128    -4.91383    3.40249   46.79211
      H    H10129    -5.02729    3.72195   47.68727
      H    H10130    -4.09686    3.80374   46.49584
      O    O10131    -2.13398   20.54964   46.27398
      H    H10132    -1.34145   20.05456   46.06658
      H    H10133    -1.84067   21.22865   46.88154
      O    O10134    12.76633   11.42173   35.92994
      H    H10135    12.68574   10.50719   35.65911
      H    H10136    12.35278   11.91844   35.22391
      O    O10137    10.89814   13.19964   37.81086
      H    H10138    10.12235   12.71968   38.10072
      H    H10139    11.54943   12.52020   37.63648
      O    O10140     4.91472   13.51162   38.68844
      H    H10141     4.08321   13.25649   39.08809
      H    H10142     5.52282   13.58269   39.42423
      O    O10143    14.91888   17.60565   36.59078
      H    H10144    14.45703   16.83438   36.91949
      H    H10145    15.73144   17.63226   37.09602
      O    O10146     4.89485   17.54563   38.88424
      H    H10147     5.19765   16.65540   38.70526
      H    H10148     5.63921   18.10265   38.65647
      O    O10149     3.32392    8.47181   32.47268
      H    H10150     2.43559    8.81340   32.37067
      H    H10151     3.60803    8.27184   31.58076
      O    O10152     1.28722   11.07237   38.35665
      H    H10153     1.85883   10.30459   38.35701
      H    H10154     1.28737   11.37125   37.44731
      O    O10155    11.14521   19.89146   36.21118
      H    H10156    10.52636   20.34721   35.64062
      H    H10157    12.00039   20.04660   35.81015
      O    O10158    10.33904   15.87535   37.81788
      H    H10159    10.26986   14.93435   37.65679
      H    H10160    11.10102   15.96550   38.39014
      O    O10161     2.52970    6.48081   40.14354
      H    H10162     2.34999    5.58338   40.42382
      H    H10163     2.12771    7.02799   40.81824
      O    O10164    11.36955    8.68239   38.04477
      H    H10165    11.74604    7.80958   37.93214
      H    H10166    11.27150    9.01826   37.15382
      O    O10167     5.50005    7.05496   33.50652
      H    H10168     5.60673    7.95533   33.81339
      H    H10169     4.58929    7.00675   33.21598
      O    O10170    15.15197    6.17744   34.97761
      H    H10171    15.97293    5.68709   35.02016
      H    H10172    15.18537    6.76720   35.73079
      O    O10173     3.14837    8.97686   38.75178
      H    H10174     3.82938    9.24069   39.37052
      H    H10175     2.83318    8.13694   39.08558
      O    O10176     7.34083   10.02359   37.83904
      H    H10177     7.84865   10.52169   38.47954
      H    H10178     7.87215    9.24711   37.66297
      O    O10179    19.44192    8.19411   41.54197
      H    H10180    18.73714    8.58228   41.02348
      H    H10181    19.70771    8.88914   42.14406
      O    O10182     5.62444    4.66345   42.10538
      H    H10183     5.62628    5.18069   41.29997
      H    H10184     4.79487    4.18647   42.08237
      O    O10185     6.87472   14.30297   40.28273
      H    H10186     6.54166   14.92986   40.92483
      H    H10187     7.05139   14.82915   39.50289
      O    O10188    15.38811    8.11747   37.75036
      H    H10189    14.68367    8.40596   38.33067
      H    H10190    15.74933    8.92749   37.39032
      O    O10191     5.30597    6.37444   40.11242
      H    H10192     5.64765    7.21865   39.81781
      H    H10193     4.36755    6.52282   40.22896
      O    O10194     6.08663   16.27105   42.09765
      H    H10195     6.70403   16.94615   41.81609
      H    H10196     5.22594   16.67984   42.00640
      O    O10197     1.37987   15.46103   30.97833
      H    H10198     1.00266   15.94974   30.24682
      H    H10199     1.63717   16.13356   31.60898
      O    O10200    18.45681    7.56295   38.14128
      H    H10201    17.50930    7.59685   38.27283
      H    H10202    18.78180    8.37685   38.52622
      O    O10203     8.98876    3.86267   36.43688
      H    H10204     9.29626    3.30736   35.72043
      H    H10205     8.05883    3.99712   36.25418
      O    O10206    14.54027   19.57940   38.72763
      H    H10207    14.55298   19.17563   37.85985
      H    H10208    13.98779   20.35413   38.62377
      O    O10209    15.83481   16.30102   33.81664
      H    H10210    15.72444   15.35846   33.94159
      H    H10211    15.83163   16.66259   34.70292
      O    O10212     6.98250   12.45403   35.95487
      H    H10213     6.57820   11.74175   35.45946
      H    H10214     7.06881   12.10935   36.84367
      O    O10215     7.45067   16.14078   38.11879
      H    H10216     7.15350   15.53533   37.43957
      H    H10217     8.40065   16.17852   38.00772
      O    O10218     5.69536    9.22835   39.73477
      H    H10219     6.24682    9.33788   38.96010
      H    H10220     6.20971    9.60211   40.45029
      O    O10221     6.54251   15.87895   44.76957
      H    H10222     5.64537   16.10295   45.01691
      H    H10223     6.56780   16.00245   43.82071
      O    O10224     5.36963   12.75029   43.34530
      H    H10225     5.23041   13.62257   43.71404
      H    H10226     4.48777   12.40757   43.20010
      O    O10227    11.69257   17.66787   34.65182
      H    H10228    12.13216   18.41031   34.23736
      H    H10229    11.63126   17.91053   35.57571
      O    O10230     7.16767   18.69246   45.55382
      H    H10231     7.13921   19.09675   44.68666
      H    H10232     7.00417   17.76349   45.39098
      O    O10233    17.16475    3.98255   28.99780
      H    H10234    16.85201    4.07523   29.89770
      H    H10235    17.92600    4.56065   28.94754
      O    O10236     3.68296   11.34853   33.45553
      H    H10237     3.56272   12.07474   32.84366
      H    H10238     3.37305   10.57882   32.97832
      O    O10239    19.11915   19.47517   46.85024
      H    H10240    19.59512   19.95345   47.52914
      H    H10241    19.73987   19.40691   46.12479
      O    O10242     1.32150   14.52004   39.26240
      H    H10243     1.39954   14.65492   38.31797
      H    H10244     1.93567   13.81163   39.45521
      O    O10245     2.56626   16.22006   35.67301
      H    H10246     2.15907   16.36152   34.81837
      H    H10247     3.45756   15.93608   35.47013
      O    O10248    14.35959   20.65478   32.00812
      H    H10249    14.19970   20.36508   32.90630
      H    H10250    14.19426   19.87880   31.47264
      O    O10251     6.83843   20.43464   33.78528
      H    H10252     6.66268   19.51819   33.57206
      H    H10253     5.98400   20.79337   34.02506
      O    O10254    13.62720   19.78981   34.64277
      H    H10255    14.08289   19.00875   34.95663
      H    H10256    13.96645   20.50049   35.18689
      O    O10257     1.37745   15.56146   41.80184
      H    H10258     1.54056   15.09199   40.98378
      H    H10259     1.84270   15.05381   42.46673
      O    O10260     6.14933    4.69203   36.83790
      H    H10261     5.70614    5.47299   36.50635
      H    H10262     6.70783    5.01502   37.54499
      O    O10263    10.43631    7.55889   42.44143
      H    H10264     9.97425    7.76719   43.25342
      H    H10265    10.03412    6.74482   42.13850
      O    O10266     9.26521    4.31310   31.71848
      H    H10267     8.64063    4.30909   32.44381
      H    H10268     9.17822    3.44620   31.32208
      O    O10269     8.18692    5.23677   38.69686
      H    H10270     8.48415    6.14305   38.61606
      H    H10271     8.73547    4.74864   38.08282
      O    O10272     5.94075    9.81539   34.56602
      H    H10273     5.71484    9.59911   35.47069
      H    H10274     5.16000   10.24824   34.22062
      O    O10275    11.77701    8.45808   35.19542
      H    H10276    12.16997    8.77530   34.38229
      H    H10277    12.13870    7.57927   35.30987
      O    O10278     3.51173    7.12532   43.38543
      H    H10279     3.11806    7.97284   43.59271
      H    H10280     2.82357    6.48795   43.57629
      O    O10281    10.08623    7.20881   46.45510
      H    H10282     9.39606    7.01603   47.08971
      H    H10283    10.82946    7.49228   46.98753
      O    O10284     0.81343    5.04816   37.41844
      H    H10285     0.52474    5.61845   38.13093
      H    H10286     1.55801    4.56861   37.78156
      O    O10287     1.00045    8.99017   28.62871
      H    H10288     0.91792    9.93325   28.77021
      H    H10289     0.64876    8.84766   27.74994
      O    O10290     8.80027    7.72408   37.69574
      H    H10291     8.80387    7.28307   36.84620
      H    H10292     9.69538    8.04581   37.80293
      O    O10293     4.65050    7.60673   36.65516
      H    H10294     4.31051    8.08425   37.41187
      H    H10295     3.88824    7.15324   36.29527
      O    O10296     8.86228    8.72528   30.68642
      H    H10297     8.98356    8.68393   31.63500
      H    H10298     8.47713    9.58770   30.53109
      O    O10299    12.82512    6.50202   38.70279
      H    H10300    12.84239    6.95289   39.54697
      H    H10301    12.57668    5.60259   38.91613
      O    O10302    16.25219    3.91524   44.54143
      H    H10303    16.57677    3.18421   45.06722
      H    H10304    16.28784    3.59661   43.63953
      O    O10305     2.95135   14.93660   43.96142
      H    H10306     2.56683   14.29597   44.55972
      H    H10307     3.26257   15.64021   44.53090
      O    O10308     9.10106   11.78425   39.44228
      H    H10309     9.46808   11.31011   40.18842
      H    H10310     8.91157   12.65841   39.78312
      O    O10311     1.96511    6.52862   35.57163
      H    H10312     1.67980    6.16419   36.40949
      H    H10313     1.90300    5.79667   34.95795
      O    O10314     6.89100   10.82512   41.76071
      H    H10315     6.58671   11.70432   41.98574
      H    H10316     7.84565   10.88510   41.79645
      O    O10317     5.41918   15.03122   32.35739
      H    H10318     4.64541   14.49098   32.19726
      H    H10319     6.14864   14.51188   32.01917
      O    O10320    16.17798   14.02775   38.15003
      H    H10321    16.89789   14.52328   37.75964
      H    H10322    15.97616   13.34954   37.50542
      O    O10323    11.63897    5.42155   32.29297
      H    H10324    10.82543    4.92287   32.21750
      H    H10325    11.44517    6.26137   31.87660
      O    O10326     5.46292   14.69926   35.99527
      H    H10327     5.98079   13.89608   35.94096
      H    H10328     5.01132   14.63717   36.83695
      O    O10329     2.94737   11.66539   42.90784
      H    H10330     2.58887   12.33078   43.49518
      H    H10331     2.65283   10.83375   43.27910
      O    O10332     6.14869   12.12382   45.79180
      H    H10333     5.84870   12.26953   44.89458
      H    H10334     6.91981   11.56435   45.69914
      O    O10335    17.65396   17.95892   32.78538
      H    H10336    17.01158   17.30449   33.05976
      H    H10337    17.26703   18.36443   32.00945
      O    O10338    13.23261   15.28747   36.63255
      H    H10339    13.58499   14.69028   35.97269
      H    H10340    12.34884   14.96189   36.80338
      O    O10341     1.45818   11.66452   29.53130
      H    H10342     2.32766   11.94700   29.81489
      H    H10343     0.96721   12.47811   29.41618
      O    O10344     8.62166   13.05184   33.65213
      H    H10345     9.07794   13.86236   33.87815
      H    H10346     8.27048   12.73415   34.48398
      O    O10347     4.52284    3.39560   34.12438
      H    H10348     4.39430    3.38739   35.07287
      H    H10349     3.69904    3.73391   33.77348
      O    O10350     1.82530   20.87726   30.09746
      H    H10351     2.18507   21.47619   29.44319
      H    H10352     1.68454   21.42325   30.87097
      O    O10353     1.52223    5.15472   43.58505
      H    H10354     0.80808    5.35441   44.19031
      H    H10355     1.94173    4.37867   43.95653
      O    O10356     1.80949   19.14274   44.57170
      H    H10357     1.91860   18.20222   44.43124
      H    H10358     1.15755   19.40822   43.92308
      O    O10359     3.44283   13.48187   31.65951
      H    H10360     2.83562   14.22176   31.66904
      H    H10361     3.91776   13.57180   30.83333
      O    O10362    13.01611    7.64695   41.33520
      H    H10363    13.38419    6.82647   41.66315
      H    H10364    12.15593    7.70714   41.75076
      O    O10365    16.38231    6.60264   32.14395
      H    H10366    15.75363    6.70721   31.42978
      H    H10367    15.88750    6.82232   32.93334
      O    O10368     8.35071    8.88124   33.55974
      H    H10369     7.64233    9.34987   34.00110
      H    H10370     8.63516    8.22344   34.19426
      O    O10371    12.38226    5.60630   34.99932
      H    H10372    12.25904    5.62492   34.05027
      H    H10373    13.33071    5.65420   35.11916
      O    O10374     9.46994   20.84183   34.27212
      H    H10375     9.72409   20.80397   33.35005
      H    H10376     8.52118   20.71517   34.26494
      O    O10377     6.55422    7.18974   30.93481
      H    H10378     7.40327    7.62676   30.86883
      H    H10379     6.18734    7.50177   31.76202
      O    O10380    17.18299    6.51770   42.40183
      H    H10381    16.68035    7.25824   42.74121
      H    H10382    17.99866    6.90610   42.08551
      O    O10383     5.45336   13.44298   29.40836
      H    H10384     6.21969   13.33112   29.97091
      H    H10385     5.53083   12.74678   28.75604
      O    O10386     4.14803   10.87549   30.09165
      H    H10387     4.22839    9.92824   30.20339
      H    H10388     5.04001   11.20618   30.19772
      O    O10389    17.47775   18.93191   37.52339
      H    H10390    17.60249   19.75502   37.99578
      H    H10391    18.34431   18.72098   37.17581
      O    O10392     4.94951   21.02503   37.19511
      H    H10393     5.68575   20.47657   37.46596
      H    H10394     5.33360   21.89063   37.05571
      O    O10395     1.83405   17.09238   33.06926
      H    H10396     0.90803   17.33450   33.05980
      H    H10397     2.29970   17.91981   32.94773
      O    O10398     3.95533   20.20963   46.38367
      H    H10399     4.75661   20.53084   46.79721
      H    H10400     3.44052   19.84919   47.10566
      O    O10401     8.05974   20.19806   29.01766
      H    H10402     8.85260   20.48694   28.56584
      H    H10403     7.54017   19.76727   28.33891
      O    O10404    14.22183   20.04565   44.94215
      H    H10405    15.17401   19.96145   44.89217
      H    H10406    14.07466   20.70982   45.61553
      O    O10407     1.67511   12.69698   45.32727
      H    H10408     2.17902   12.11771   45.89889
      H    H10409     0.93586   12.98100   45.86491
      O    O10410     3.70742   10.83994   46.22228
      H    H10411     3.74796   10.54133   47.13080
      H    H10412     4.56197   11.24070   46.06303
      O    O10413     7.48526   13.43949   31.38263
      H    H10414     7.90690   13.27348   32.22577
      H    H10415     7.61035   12.62952   30.88814
      O    O10416     5.64800    9.41915   44.18973
      H    H10417     5.11765    8.92824   43.56206
      H    H10418     6.31681    9.84757   43.65552
      O    O10419     9.99803   12.46325   28.63034
      H    H10420    10.51859   11.74816   28.26445
      H    H10421    10.64487   13.10184   28.93039
      O    O10422     6.13523    6.38539   44.26946
      H    H10423     6.04092    5.76746   43.54454
      H    H10424     5.55497    7.11201   44.04245
      O    O10425     8.90138    4.94271   41.30219
      H    H10426     8.45311    4.96514   40.45675
      H    H10427     8.26790    4.54461   41.89922
      O    O10428     6.38115    9.51282   28.32844
      H    H10429     6.18006    8.64955   28.68978
      H    H10430     6.21036    9.42615   27.39060
      O    O10431     7.15807   20.14344   43.03921
      H    H10432     6.62018   20.86805   42.72008
      H    H10433     7.41147   19.66648   42.24895
      O    O10434     8.41060    8.11190   44.56480
      H    H10435     9.00057    7.80348   45.25259
      H    H10436     7.59262    7.63987   44.72079
      O    O10437    13.22994    7.72848   44.79811
      H    H10438    12.54149    7.06663   44.73311
      H    H10439    13.95054    7.28230   45.24295
      O    O10440    13.85998    4.32364   30.85713
      H    H10441    14.14021    3.48043   31.21307
      H    H10442    13.08656    4.55595   31.37101
      O    O10443     5.17943    6.61288   28.31623
      H    H10444     5.48202    6.61962   27.40815
      H    H10445     5.91889    6.26266   28.81300
      O    O10446    10.01430   21.37856   43.29788
      H    H10447     9.94017   22.28208   43.60511
      H    H10448     9.11218   21.05975   43.27008
      O    O10449     8.39792    5.55634   29.30185
      H    H10450     8.05012    4.87874   28.72210
      H    H10451     8.59920    5.09529   30.11619
      O    O10452    10.56283   20.54442   30.92051
      H    H10453    11.45791   20.88291   30.94239
      H    H10454    10.59459   19.82236   30.29294
      O    O10455     4.20244   15.91712   29.14921
      H    H10456     4.63993   16.46009   29.80497
      H    H10457     4.68722   15.09182   29.15885
      O    O10458     1.41702   18.70602   36.60124
      H    H10459     1.74733   17.83813   36.36910
      H    H10460     1.84612   18.91188   37.43173
      O    O10461     6.01322   17.03692   34.26144
      H    H10462     5.71277   16.91342   35.16183
      H    H10463     5.90697   16.17778   33.85301
      O    O10464     1.90605   19.57308   39.33940
      H    H10465     1.46914   19.75316   40.17182
      H    H10466     2.47381   20.33054   39.19757
      O    O10467     1.73849   12.08511   35.69829
      H    H10468     1.08337   11.81627   35.05426
      H    H10469     2.57628   11.97555   35.24849
      O    O10470    19.24405   14.41632   36.31172
      H    H10471    19.61493   13.63305   35.90531
      H    H10472    19.88424   15.10523   36.13345
      O    O10473    14.68753    6.87923   29.92014
      H    H10474    15.10602    6.69233   29.07980
      H    H10475    14.38114    6.02714   30.23043
      O    O10476     2.77608   12.47036   40.23862
      H    H10477     3.14339   12.38310   41.11823
      H    H10478     2.20716   11.70702   40.13931
      O    O10479     2.32768    9.38127   44.14447
      H    H10480     1.43329    9.34795   44.48384
      H    H10481     2.86744    9.57995   44.90959
      O    O10482    16.01527    6.16444   46.02964
      H    H10483    16.89229    6.17278   46.41304
      H    H10484    16.02736    5.42753   45.41888
      O    O10485     0.95230    9.29500   31.64082
      H    H10486     0.04870    9.55802   31.46599
      H    H10487     1.43636    9.56612   30.86082
      O    O10488    17.46160   10.01740   36.91844
      H    H10489    17.98535    9.52366   36.28746
      H    H10490    18.04754   10.15243   37.66320
      O    O10491     3.49502    8.35155   29.55026
      H    H10492     4.20419    7.92987   29.06499
      H    H10493     2.77901    8.41908   28.91860
      O    O10494     3.14243    4.40549   28.59053
      H    H10495     3.86525    4.94638   28.90865
      H    H10496     3.41489    4.13183   27.71468
      O    O10497     2.83165    3.65610   38.49279
      H    H10498     3.47927    3.10584   38.05230
      H    H10499     3.25184    3.91042   39.31437
      O    O10500    18.38031    7.91083   35.39145
      H    H10501    18.27024    7.75643   36.32968
      H    H10502    19.14107    7.38292   35.14899
      O    O10503    16.72689    3.85024   41.84975
      H    H10504    17.36411    4.46365   42.21567
      H    H10505    16.87438    3.88631   40.90467
      O    O10506    19.26934    5.74162   28.63207
      H    H10507    20.19427    5.60974   28.42389
      H    H10508    19.24692    5.82090   29.58571
      O    O10509    19.34319    6.51269   31.25774
      H    H10510    18.54834    6.44720   31.78703
      H    H10511    19.54752    7.44775   31.24627
      O    O10512    16.28503   20.55184   35.25158
      H    H10513    16.88094   20.23030   34.57502
      H    H10514    16.54285   20.07902   36.04290
      O    O10515     2.58485    3.81167   41.23532
      H    H10516     2.23633    4.26805   42.00114
      H    H10517     2.25362    2.91738   41.31756
      O    O10518     4.19129   16.98363   45.40064
      H    H10519     4.14825   16.61292   46.28208
      H    H10520     4.32239   17.92139   45.54082
      O    O10521     7.89189   18.53959   41.00161
      H    H10522     7.65103   18.80705   40.11466
      H    H10523     8.83216   18.71016   41.05670
      O    O10524    10.09733    5.00286   44.75726
      H    H10525    10.03622    5.59504   45.50680
      H    H10526    11.03737    4.89546   44.61229
      O    O10527    12.73479    4.65987   44.39649
      H    H10528    13.34883    4.97779   43.73460
      H    H10529    13.27975    4.17472   45.01608
      O    O10530    19.15231   20.55903   41.80267
      H    H10531    18.65814   20.95592   41.08539
      H    H10532    18.54364   19.93395   42.19640
      O    O10533     3.25692    3.33929   44.51040
      H    H10534     3.80522    3.15810   43.74701
      H    H10535     3.32245    2.54870   45.04603
      O    O10536     4.03009   19.92986   42.52042
      H    H10537     3.43612   19.79833   43.25942
      H    H10538     4.02248   19.09367   42.05463
      O    O10539    13.47559    3.22308   40.72342
      H    H10540    12.60158    3.55659   40.52071
      H    H10541    13.36667    2.75040   41.54861
      O    O10542    14.38279    5.43017   42.10759
      H    H10543    14.05413    4.61534   41.72776
      H    H10544    15.33102    5.38715   41.98416
      O    O10545    16.83625   21.20137   39.08135
      H    H10546    16.37655   21.95295   38.70715
      H    H10547    16.20750   20.48202   39.02283
      O    O10548     3.66132   17.29569   41.47122
      H    H10549     2.93472   16.67622   41.40382
      H    H10550     3.72223   17.68976   40.60103
      O    O10551     7.26583   19.51019   38.25616
      H    H10552     7.78233   18.89893   37.73099
      H    H10553     7.91556   20.01307   38.74726
      O    O10554    10.00538   20.40104   39.08306
      H    H10555    10.29316   20.14647   38.20636
      H    H10556    10.51770   19.84878   39.67362
      O    O10557    11.22308    4.14006   39.66271
      H    H10558    10.44026    4.61461   39.94239
      H    H10559    10.92937    3.23555   39.55403
      O    O10560    15.77518    4.84237   37.70762
      H    H10561    16.21599    4.78688   36.85978
      H    H10562    15.50594    5.75817   37.77864
      O    O10563    17.63904    4.47390   35.71850
      H    H10564    17.57788    3.53002   35.57160
      H    H10565    18.41824    4.58191   36.26385
      O    O10566     1.94432   20.61313   34.68090
      H    H10567     1.77652   19.98020   35.37909
      H    H10568     1.07777   20.81907   34.33032
      O    O10569     2.56712    4.44481   32.18408
      H    H10570     3.32505    4.55770   31.61049
      H    H10571     2.10483    5.28173   32.13843
      O    O10572     9.10850    6.55874   35.17431
      H    H10573     8.29595    6.18443   34.83390
      H    H10574     9.61266    5.80325   35.47643
      O    O10575    13.61100    3.22298   36.41262
      H    H10576    14.21393    3.79500   36.88747
      H    H10577    12.87030    3.78693   36.19001
      O    O10578    16.75446    3.62514   31.68665
      H    H10579    16.94952    4.52348   31.95339
      H    H10580    15.96744    3.39385   32.17994
      O    O10581     3.55059   19.30646   32.12591
      H    H10582     3.02535   19.68726   31.42211
      H    H10583     3.47504   19.93153   32.84688
      O    O10584     4.93963    4.97122   30.72428
      H    H10585     5.46891    4.18420   30.59507
      H    H10586     5.57246    5.65034   30.95783
      O    O10587     7.13342    4.70873   33.77882
      H    H10588     6.50369    4.00746   33.94583
      H    H10589     6.59393    5.46914   33.56213
      O    O10590    10.07261   21.32265   46.44988
      H    H10591    10.99934   21.08708   46.49348
      H    H10592    10.05765   22.14985   45.96848
      O    O10593    18.30712   20.86521   33.44730
      H    H10594    18.48234   20.17898   32.80340
      H    H10595    17.60927   21.38992   33.05497
      O    O10596     7.25897    3.98713   46.21407
      H    H10597     6.97740    4.49049   45.45015
      H    H10598     7.64094    3.18930   45.84828
      O    O10599     6.14988   21.25469   31.00084
      H    H10600     6.88176   20.97062   30.45322
      H    H10601     6.40925   21.01602   31.89077
      O    O10602     5.31136   17.37117   31.00547
      H    H10603     4.68225   17.83968   31.55405
      H    H10604     5.42614   16.52609   31.44009
      O    O10605    13.86052    3.40249   46.79211
      H    H10606    13.74706    3.72195   47.68727
      H    H10607    14.67749    3.80374   46.49584
      O    O10608    16.64037   20.54964   46.27398
      H    H10609    17.43290   20.05456   46.06658
      H    H10610    16.93368   21.22865   46.88154
      O    O10611    31.54068   11.42173   35.92994
      H    H10612    31.46009   10.50719   35.65911
      H    H10613    31.12713   11.91844   35.22391
      O    O10614    29.67249   13.19964   37.81086
      H    H10615    28.89670   12.71968   38.10072
      H    H10616    30.32378   12.52020   37.63648
      O    O10617    33.69323   17.60565   36.59078
      H    H10618    33.23138   16.83438   36.91949
      H    H10619    34.50579   17.63226   37.09602
      O    O10620    22.09827    8.47181   32.47268
      H    H10621    21.20994    8.81340   32.37067
      H    H10622    22.38238    8.27184   31.58076
      O    O10623    20.06157   11.07237   38.35665
      H    H10624    20.63318   10.30459   38.35701
      H    H10625    20.06172   11.37125   37.44731
      O    O10626    29.91956   19.89146   36.21118
      H    H10627    29.30071   20.34721   35.64062
      H    H10628    30.77474   20.04660   35.81015
      O    O10629    29.11339   15.87535   37.81788
      H    H10630    29.04421   14.93435   37.65679
      H    H10631    29.87537   15.96550   38.39014
      O    O10632    21.30405    6.48081   40.14354
      H    H10633    21.12434    5.58338   40.42382
      H    H10634    20.90206    7.02799   40.81824
      O    O10635    30.14390    8.68239   38.04477
      H    H10636    30.52039    7.80958   37.93214
      H    H10637    30.04585    9.01826   37.15382
      O    O10638    24.27440    7.05496   33.50652
      H    H10639    24.38108    7.95533   33.81339
      H    H10640    23.36364    7.00675   33.21598
      O    O10641    33.92632    6.17744   34.97761
      H    H10642    34.74728    5.68709   35.02016
      H    H10643    33.95972    6.76720   35.73079
      O    O10644    21.92272    8.97686   38.75178
      H    H10645    22.60373    9.24069   39.37052
      H    H10646    21.60753    8.13694   39.08558
      O    O10647    38.21627    8.19411   41.54197
      H    H10648    37.51149    8.58228   41.02348
      H    H10649    38.48206    8.88914   42.14406
      O    O10650    24.39879    4.66345   42.10538
      H    H10651    24.40063    5.18069   41.29997
      H    H10652    23.56922    4.18647   42.08237
      O    O10653    30.78590   14.77538   33.60437
      H    H10654    30.16762   15.24032   33.04064
      H    H10655    31.29822   15.46813   34.02132
      O    O10656    34.16246    8.11747   37.75036
      H    H10657    33.45802    8.40596   38.33067
      H    H10658    34.52368    8.92749   37.39032
      O    O10659    24.08032    6.37444   40.11242
      H    H10660    24.42200    7.21865   39.81781
      H    H10661    23.14190    6.52282   40.22896
      O    O10662    35.77874   17.73499   40.01311
      H    H10663    35.09509   18.40490   40.00478
      H    H10664    36.31817   17.93305   39.24760
      O    O10665    37.23116    7.56295   38.14128
      H    H10666    36.28365    7.59685   38.27283
      H    H10667    37.55615    8.37685   38.52622
      O    O10668    27.76311    3.86267   36.43688
      H    H10669    28.07061    3.30736   35.72043
      H    H10670    26.83318    3.99712   36.25418
      O    O10671    33.31462   19.57940   38.72763
      H    H10672    33.32733   19.17563   37.85985
      H    H10673    32.76214   20.35413   38.62377
      O    O10674    34.60916   16.30102   33.81664
      H    H10675    34.49879   15.35846   33.94159
      H    H10676    34.60598   16.66259   34.70292
      O    O10677    32.71316   14.48238   40.05589
      H    H10678    33.13004   14.26840   39.22123
      H    H10679    33.43714   14.73966   40.62675
      O    O10680    30.15119   11.92755   33.17289
      H    H10681    29.22411   11.86129   33.40174
      H    H10682    30.30367   12.86557   33.05842
      O    O10683    30.13809    8.19925   30.16961
      H    H10684    29.19846    8.36065   30.25486
      H    H10685    30.45642    8.91782   29.62321
      O    O10686    36.65937   12.88111   40.14751
      H    H10687    35.83123   12.95042   39.67253
      H    H10688    37.25442   13.46654   39.67910
      O    O10689    34.18091   13.48958   33.67642
      H    H10690    33.56216   13.15154   33.02905
      H    H10691    34.16336   12.84556   34.38434
      O    O10692    33.62357    9.66804   41.09300
      H    H10693    33.21069   10.49341   41.34700
      H    H10694    32.89117    9.08254   40.90064
      O    O10695    34.31358   19.71397   41.78110
      H    H10696    33.83664   20.52119   41.58836
      H    H10697    33.62976   19.06180   41.93372
      O    O10698    32.35738   12.72827   30.68369
      H    H10699    32.79671   11.89051   30.53748
      H    H10700    33.07023   13.36121   30.77011
      O    O10701    30.46692   17.66787   34.65182
      H    H10702    30.90651   18.41031   34.23736
      H    H10703    30.40561   17.91053   35.57571
      O    O10704    35.93910    3.98255   28.99780
      H    H10705    35.62636    4.07523   29.89770
      H    H10706    36.70035    4.56065   28.94754
      O    O10707    37.89350   19.47517   46.85024
      H    H10708    38.36947   19.95345   47.52914
      H    H10709    38.51422   19.40691   46.12479
      O    O10710    37.29683   16.66645   44.01024
      H    H10711    37.42313   16.42764   43.09196
      H    H10712    37.33896   15.83490   44.48245
      O    O10713    31.15850   20.36925   42.57972
      H    H10714    31.67297   20.28005   43.38196
      H    H10715    30.31541   20.71522   42.87251
      O    O10716    33.13394   20.65478   32.00812
      H    H10717    32.97405   20.36508   32.90630
      H    H10718    32.96861   19.87880   31.47264
      O    O10719    32.83655   18.16354   30.56792
      H    H10720    32.14307   18.16127   29.90815
      H    H10721    33.57884   17.73947   30.13734
      O    O10722    32.40155   19.78981   34.64277
      H    H10723    32.85724   19.00875   34.95663
      H    H10724    32.74080   20.50049   35.18689
      O    O10725    37.14923    8.71970   44.97521
      H    H10726    36.53365    9.22766   44.44676
      H    H10727    36.82887    7.81953   44.91781
      O    O10728    24.92368    4.69203   36.83790
      H    H10729    24.48049    5.47299   36.50635
      H    H10730    25.48218    5.01502   37.54499
      O    O10731    29.21066    7.55889   42.44143
      H    H10732    28.74860    7.76719   43.25342
      H    H10733    28.80847    6.74482   42.13850
      O    O10734    34.21111    8.77978   43.57110
      H    H10735    33.36047    8.48036   43.89200
      H    H10736    34.05129    9.02398   42.65948
      O    O10737    31.30608   10.27996   45.67098
      H    H10738    31.63142    9.44633   45.33120
      H    H10739    32.09411   10.80281   45.81881
      O    O10740    28.03956    4.31310   31.71848
      H    H10741    27.41498    4.30909   32.44381
      H    H10742    27.95257    3.44620   31.32208
      O    O10743    26.96127    5.23677   38.69686
      H    H10744    27.25850    6.14305   38.61606
      H    H10745    27.50982    4.74864   38.08282
      O    O10746    31.94488    9.82173   33.16509
      H    H10747    31.34577   10.54531   32.98145
      H    H10748    32.49284    9.75941   32.38273
      O    O10749    30.55136    8.45808   35.19542
      H    H10750    30.94432    8.77530   34.38229
      H    H10751    30.91305    7.57927   35.30987
      O    O10752    22.28608    7.12532   43.38543
      H    H10753    21.89241    7.97284   43.59271
      H    H10754    21.59792    6.48795   43.57629
      O    O10755    28.86058    7.20881   46.45510
      H    H10756    28.17041    7.01603   47.08971
      H    H10757    29.60381    7.49228   46.98753
      O    O10758    19.58778    5.04816   37.41844
      H    H10759    19.29909    5.61845   38.13093
      H    H10760    20.33236    4.56861   37.78156
      O    O10761    19.77480    8.99017   28.62871
      H    H10762    19.69227    9.93325   28.77021
      H    H10763    19.42311    8.84766   27.74994
      O    O10764    31.13688   11.04866   39.29049
      H    H10765    30.40499   11.55734   39.63950
      H    H10766    30.73931   10.23165   38.98937
      O    O10767    27.57462    7.72408   37.69574
      H    H10768    27.57822    7.28307   36.84620
      H    H10769    28.46973    8.04581   37.80293
      O    O10770    23.42485    7.60673   36.65516
      H    H10771    23.08486    8.08425   37.41187
      H    H10772    22.66259    7.15324   36.29527
      O    O10773    27.63663    8.72528   30.68642
      H    H10774    27.75791    8.68393   31.63500
      H    H10775    27.25148    9.58770   30.53109
      O    O10776    31.59947    6.50202   38.70279
      H    H10777    31.61674    6.95289   39.54697
      H    H10778    31.35103    5.60259   38.91613
      O    O10779    35.02654    3.91524   44.54143
      H    H10780    35.35112    3.18421   45.06722
      H    H10781    35.06219    3.59661   43.63953
      O    O10782    20.73946    6.52862   35.57163
      H    H10783    20.45415    6.16419   36.40949
      H    H10784    20.67735    5.79667   34.95795
      O    O10785    34.95233   14.02775   38.15003
      H    H10786    35.67224   14.52328   37.75964
      H    H10787    34.75051   13.34954   37.50542
      O    O10788    30.41332    5.42155   32.29297
      H    H10789    29.59978    4.92287   32.21750
      H    H10790    30.21952    6.26137   31.87660
      O    O10791    30.33421   14.09866   44.03693
      H    H10792    30.26794   13.17823   43.78269
      H    H10793    29.70472   14.19620   44.75139
      O    O10794    33.12816    9.79351   30.58918
      H    H10795    34.01612   10.10524   30.41432
      H    H10796    33.09867    8.92074   30.19724
      O    O10797    29.12422   15.96588   31.26800
      H    H10798    29.46579   16.71011   30.77233
      H    H10799    28.29549   16.27900   31.63048
      O    O10800    30.26588   16.92072   43.78731
      H    H10801    30.28033   15.98881   43.56920
      H    H10802    29.55839   17.00669   44.42629
      O    O10803    35.39959   11.10470   30.05717
      H    H10804    35.31596   11.53612   29.20681
      H    H10805    36.11901   11.56453   30.48985
      O    O10806    36.47700   13.56145   43.13417
      H    H10807    35.75182   14.15433   42.93711
      H    H10808    37.00455   13.55380   42.33550
      O    O10809    36.42831   17.95892   32.78538
      H    H10810    35.78593   17.30449   33.05976
      H    H10811    36.04138   18.36443   32.00945
      O    O10812    32.00696   15.28747   36.63255
      H    H10813    32.35934   14.69028   35.97269
      H    H10814    31.12319   14.96189   36.80338
      O    O10815    29.69927   18.56247   40.88136
      H    H10816    30.34349   18.76841   41.55870
      H    H10817    30.06221   17.80131   40.42844
      O    O10818    23.29719    3.39560   34.12438
      H    H10819    23.16865    3.38739   35.07287
      H    H10820    22.47339    3.73391   33.77348
      O    O10821    30.97248   16.56571   39.59910
      H    H10822    31.61470   15.86502   39.71232
      H    H10823    31.49741   17.34555   39.41879
      O    O10824    34.81805   16.85057   29.32302
      H    H10825    34.59181   16.13361   29.91548
      H    H10826    34.42767   16.60181   28.48519
      O    O10827    32.74624   17.36520   42.80271
      H    H10828    33.08186   17.95187   43.48050
      H    H10829    31.82627   17.23447   43.03249
      O    O10830    20.59965   20.87726   30.09746
      H    H10831    20.95942   21.47619   29.44319
      H    H10832    20.45889   21.42325   30.87097
      O    O10833    20.29658    5.15472   43.58505
      H    H10834    19.58243    5.35441   44.19031
      H    H10835    20.71608    4.37867   43.95653
      O    O10836    34.39968   14.76776   30.98443
      H    H10837    34.11185   15.22903   31.77222
      H    H10838    35.19489   14.30754   31.25286
      O    O10839    28.57510   17.41433   45.97152
      H    H10840    28.25479   16.69526   46.51609
      H    H10841    27.90093   18.08984   46.04512
      O    O10842    31.79046    7.64695   41.33520
      H    H10843    32.15854    6.82647   41.66315
      H    H10844    30.93028    7.70714   41.75076
      O    O10845    35.15666    6.60264   32.14395
      H    H10846    34.52798    6.70721   31.42978
      H    H10847    34.66185    6.82232   32.93334
      O    O10848    29.60248   18.32320   29.57735
      H    H10849    29.70367   18.11960   28.64755
      H    H10850    28.70265   18.06903   29.78213
      O    O10851    28.75066   10.30091   41.55899
      H    H10852    29.24918   10.77549   42.22418
      H    H10853    28.89295    9.37726   41.76600
      O    O10854    31.15661    5.60630   34.99932
      H    H10855    31.03339    5.62492   34.05027
      H    H10856    32.10506    5.65420   35.11916
      O    O10857    25.32857    7.18974   30.93481
      H    H10858    26.17762    7.62676   30.86883
      H    H10859    24.96169    7.50177   31.76202
      O    O10860    35.95734    6.51770   42.40183
      H    H10861    35.45470    7.25824   42.74121
      H    H10862    36.77301    6.90610   42.08551
      O    O10863    34.24954   11.76102   35.84797
      H    H10864    33.30856   11.77604   36.02274
      H    H10865    34.56395   10.97462   36.29400
      O    O10866    36.25210   18.93191   37.52339
      H    H10867    36.37684   19.75502   37.99578
      H    H10868    37.11866   18.72098   37.17581
      O    O10869    31.56615   16.31762   46.33121
      H    H10870    30.95996   16.34078   45.59078
      H    H10871    31.26156   15.58592   46.86793
      O    O10872    32.99618   20.04565   44.94215
      H    H10873    33.94836   19.96145   44.89217
      H    H10874    32.84901   20.70982   45.61553
      O    O10875    35.88710   19.42507   30.44134
      H    H10876    35.60125   19.01158   29.62676
      H    H10877    35.68906   20.35384   30.32139
      O    O10878    30.59210   14.48040   29.48610
      H    H10879    30.04311   14.92733   30.13037
      H    H10880    31.21403   13.97533   30.00987
      O    O10881    34.64559   15.83461   45.41832
      H    H10882    35.38654   16.17219   44.91507
      H    H10883    33.88286   16.00382   44.86530
      O    O10884    28.77238   12.46325   28.63034
      H    H10885    29.29294   11.74816   28.26445
      H    H10886    29.41922   13.10184   28.93039
      O    O10887    33.32016   13.88609   43.95385
      H    H10888    33.73426   14.04060   44.80289
      H    H10889    32.38526   14.01162   44.11642
      O    O10890    33.79238   11.22571   45.95776
      H    H10891    34.37445   10.47094   45.86981
      H    H10892    33.96855   11.75645   45.18091
      O    O10893    24.90958    6.38539   44.26946
      H    H10894    24.81527    5.76746   43.54454
      H    H10895    24.32932    7.11201   44.04245
      O    O10896    27.67573    4.94271   41.30219
      H    H10897    27.22746    4.96514   40.45675
      H    H10898    27.04225    4.54461   41.89922
      O    O10899    30.41807   11.56976   43.30722
      H    H10900    30.53769   10.97387   44.04671
      H    H10901    31.27747   11.60673   42.88735
      O    O10902    32.75686   12.12348   41.88347
      H    H10903    32.23038   12.64774   41.27999
      H    H10904    33.10000   12.75622   42.51445
      O    O10905    27.18495    8.11190   44.56480
      H    H10906    27.77492    7.80348   45.25259
      H    H10907    26.36697    7.63987   44.72079
      O    O10908    32.00429    7.72848   44.79811
      H    H10909    31.31584    7.06663   44.73311
      H    H10910    32.72489    7.28230   45.24295
      O    O10911    32.63433    4.32364   30.85713
      H    H10912    32.91456    3.48043   31.21307
      H    H10913    31.86091    4.55595   31.37101
      O    O10914    23.95378    6.61288   28.31623
      H    H10915    24.25637    6.61962   27.40815
      H    H10916    24.69324    6.26266   28.81300
      O    O10917    28.78865   21.37856   43.29788
      H    H10918    28.71452   22.28208   43.60511
      H    H10919    27.88653   21.05975   43.27008
      O    O10920    27.17227    5.55634   29.30185
      H    H10921    26.82447    4.87874   28.72210
      H    H10922    27.37355    5.09529   30.11619
      O    O10923    29.33718   20.54442   30.92051
      H    H10924    30.23226   20.88291   30.94239
      H    H10925    29.36894   19.82236   30.29294
      O    O10926    20.19137   18.70602   36.60124
      H    H10927    20.52168   17.83813   36.36910
      H    H10928    20.62047   18.91188   37.43173
      O    O10929    20.68040   19.57308   39.33940
      H    H10930    20.24349   19.75316   40.17182
      H    H10931    21.24816   20.33054   39.19757
      O    O10932    36.31661   19.07478   43.62713
      H    H10933    35.71681   19.13404   42.88352
      H    H10934    36.44600   18.13528   43.75682
      O    O10935    37.55676   16.81656   28.96410
      H    H10936    36.72605   16.88423   29.43483
      H    H10937    37.73394   17.70698   28.66079
      O    O10938    37.01240   13.56131   31.46752
      H    H10939    37.77430   14.13098   31.57349
      H    H10940    37.02784   12.99403   32.23835
      O    O10941    20.51284   12.08511   35.69829
      H    H10942    19.85772   11.81627   35.05426
      H    H10943    21.35063   11.97555   35.24849
      O    O10944    38.01840   14.41632   36.31172
      H    H10945    38.38928   13.63305   35.90531
      H    H10946    38.65859   15.10523   36.13345
      O    O10947    35.00178   15.79998   41.72475
      H    H10948    34.18776   16.22970   41.98733
      H    H10949    35.40920   16.41182   41.11165
      O    O10950    37.06432   13.85475   28.62478
      H    H10951    37.33921   14.76264   28.49670
      H    H10952    36.87540   13.79100   29.56097
      O    O10953    33.46188    6.87923   29.92014
      H    H10954    33.88037    6.69233   29.07980
      H    H10955    33.15549    6.02714   30.23043
      O    O10956    36.96086   11.79165   33.61772
      H    H10957    36.58522   11.02444   33.18585
      H    H10958    36.23117   12.17392   34.10521
      O    O10959    36.35082   10.93880   43.25167
      H    H10960    36.11943   10.71008   42.35147
      H    H10961    36.61127   11.85876   43.20616
      O    O10962    21.10203    9.38127   44.14447
      H    H10963    20.20764    9.34795   44.48384
      H    H10964    21.64179    9.57995   44.90959
      O    O10965    34.78962    6.16444   46.02964
      H    H10966    35.66664    6.17278   46.41304
      H    H10967    34.80171    5.42753   45.41888
      O    O10968    36.23595   10.01740   36.91844
      H    H10969    36.75970    9.52366   36.28746
      H    H10970    36.82189   10.15243   37.66320
      O    O10971    36.41492   10.10138   40.44040
      H    H10972    35.46519   10.06774   40.55490
      H    H10973    36.59622   11.01140   40.20537
      O    O10974    22.26937    8.35155   29.55026
      H    H10975    22.97854    7.92987   29.06499
      H    H10976    21.55336    8.41908   28.91860
      O    O10977    21.91678    4.40549   28.59053
      H    H10978    22.63960    4.94638   28.90865
      H    H10979    22.18924    4.13183   27.71468
      O    O10980    35.72595    9.27473   32.85768
      H    H10981    36.22186    9.04182   33.64257
      H    H10982    35.52756    8.43592   32.44145
      O    O10983    21.60600    3.65610   38.49279
      H    H10984    22.25362    3.10584   38.05230
      H    H10985    22.02619    3.91042   39.31437
      O    O10986    37.15466    7.91083   35.39145
      H    H10987    37.04459    7.75643   36.32968
      H    H10988    37.91542    7.38292   35.14899
      O    O10989    35.50124    3.85024   41.84975
      H    H10990    36.13846    4.46365   42.21567
      H    H10991    35.64873    3.88631   40.90467
      O    O10992    38.04369    5.74162   28.63207
      H    H10993    38.96862    5.60974   28.42389
      H    H10994    38.02127    5.82090   29.58571
      O    O10995    38.11754    6.51269   31.25774
      H    H10996    37.32269    6.44720   31.78703
      H    H10997    38.32187    7.44775   31.24627
      O    O10998    35.05938   20.55184   35.25158
      H    H10999    35.65529   20.23030   34.57502
      H    H11000    35.31720   20.07902   36.04290
      O    O11001    21.35920    3.81167   41.23532
      H    H11002    21.01068    4.26805   42.00114
      H    H11003    21.02797    2.91738   41.31756
      O    O11004    28.87168    5.00286   44.75726
      H    H11005    28.81057    5.59504   45.50680
      H    H11006    29.81172    4.89546   44.61229
      O    O11007    31.50914    4.65987   44.39649
      H    H11008    32.12318    4.97779   43.73460
      H    H11009    32.05410    4.17472   45.01608
      O    O11010    37.92666   20.55903   41.80267
      H    H11011    37.43249   20.95592   41.08539
      H    H11012    37.31799   19.93395   42.19640
      O    O11013    22.03127    3.33929   44.51040
      H    H11014    22.57957    3.15810   43.74701
      H    H11015    22.09680    2.54870   45.04603
      O    O11016    32.24994    3.22308   40.72342
      H    H11017    31.37593    3.55659   40.52071
      H    H11018    32.14102    2.75040   41.54861
      O    O11019    33.15714    5.43017   42.10759
      H    H11020    32.82848    4.61534   41.72776
      H    H11021    34.10537    5.38715   41.98416
      O    O11022    35.61060   21.20137   39.08135
      H    H11023    35.15090   21.95295   38.70715
      H    H11024    34.98185   20.48202   39.02283
      O    O11025    28.77973   20.40104   39.08306
      H    H11026    29.06751   20.14647   38.20636
      H    H11027    29.29205   19.84878   39.67362
      O    O11028    29.99743    4.14006   39.66271
      H    H11029    29.21461    4.61461   39.94239
      H    H11030    29.70372    3.23555   39.55403
      O    O11031    34.54953    4.84237   37.70762
      H    H11032    34.99034    4.78688   36.85978
      H    H11033    34.28029    5.75817   37.77864
      O    O11034    36.41339    4.47390   35.71850
      H    H11035    36.35223    3.53002   35.57160
      H    H11036    37.19259    4.58191   36.26385
      O    O11037    21.34147    4.44481   32.18408
      H    H11038    22.09940    4.55770   31.61049
      H    H11039    20.87918    5.28173   32.13843
      O    O11040    27.88285    6.55874   35.17431
      H    H11041    27.07030    6.18443   34.83390
      H    H11042    28.38701    5.80325   35.47643
      O    O11043    32.38535    3.22298   36.41262
      H    H11044    32.98828    3.79500   36.88747
      H    H11045    31.64465    3.78693   36.19001
      O    O11046    35.52881    3.62514   31.68665
      H    H11047    35.72387    4.52348   31.95339
      H    H11048    34.74179    3.39385   32.17994
      O    O11049    23.71398    4.97122   30.72428
      H    H11050    24.24326    4.18420   30.59507
      H    H11051    24.34681    5.65034   30.95783
      O    O11052    25.90777    4.70873   33.77882
      H    H11053    25.27804    4.00746   33.94583
      H    H11054    25.36828    5.46914   33.56213
      O    O11055    28.84696   21.32265   46.44988
      H    H11056    29.77369   21.08708   46.49348
      H    H11057    28.83200   22.14985   45.96848
      O    O11058    37.08147   20.86521   33.44730
      H    H11059    37.25669   20.17898   32.80340
      H    H11060    36.38362   21.38992   33.05497
      O    O11061    26.03332    3.98713   46.21407
      H    H11062    25.75175    4.49049   45.45015
      H    H11063    26.41529    3.18930   45.84828
      O    O11064    32.63487    3.40249   46.79211
      H    H11065    32.52141    3.72195   47.68727
      H    H11066    33.45184    3.80374   46.49584
      O    O11067    35.41472   20.54964   46.27398
      H    H11068    36.20725   20.05456   46.06658
      H    H11069    35.70803   21.22865   46.88154
      O    O11070    -6.00802   30.19608   35.92994
      H    H11071    -6.08861   29.28154   35.65911
      H    H11072    -6.42157   30.69279   35.22391
      O    O11073    -7.87621   31.97399   37.81086
      H    H11074    -8.65200   31.49403   38.10072
      H    H11075    -7.22492   31.29455   37.63648
      O    O11076    -3.85547   36.38000   36.59078
      H    H11077    -4.31732   35.60873   36.91949
      H    H11078    -3.04291   36.40661   37.09602
      O    O11079    -7.62914   38.66581   36.21118
      H    H11080    -8.24799   39.12156   35.64062
      H    H11081    -6.77396   38.82095   35.81015
      O    O11082    -8.43531   34.64970   37.81788
      H    H11083    -8.50449   33.70870   37.65679
      H    H11084    -7.67333   34.73985   38.39014
      O    O11085    -7.40480   27.45674   38.04477
      H    H11086    -7.02831   26.58393   37.93214
      H    H11087    -7.50285   27.79261   37.15382
      O    O11088    -3.62238   24.95179   34.97761
      H    H11089    -2.80142   24.46144   35.02016
      H    H11090    -3.58898   25.54155   35.73079
      O    O11091     0.66757   26.96846   41.54197
      H    H11092    -0.03721   27.35663   41.02348
      H    H11093     0.93336   27.66349   42.14406
      O    O11094    -6.76280   33.54973   33.60437
      H    H11095    -7.38108   34.01467   33.04064
      H    H11096    -6.25048   34.24248   34.02132
      O    O11097    -3.38624   26.89182   37.75036
      H    H11098    -4.09068   27.18031   38.33067
      H    H11099    -3.02502   27.70184   37.39032
      O    O11100    -1.76996   36.50934   40.01311
      H    H11101    -2.45361   37.17925   40.00478
      H    H11102    -1.23053   36.70740   39.24760
      O    O11103    -0.31754   26.33730   38.14128
      H    H11104    -1.26505   26.37120   38.27283
      H    H11105     0.00745   27.15120   38.52622
      O    O11106    -4.23408   38.35375   38.72763
      H    H11107    -4.22137   37.94998   37.85985
      H    H11108    -4.78656   39.12848   38.62377
      O    O11109    -2.93954   35.07537   33.81664
      H    H11110    -3.04991   34.13281   33.94159
      H    H11111    -2.94272   35.43694   34.70292
      O    O11112    -4.83554   33.25673   40.05589
      H    H11113    -4.41866   33.04275   39.22123
      H    H11114    -4.11156   33.51401   40.62675
      O    O11115    -7.39751   30.70190   33.17289
      H    H11116    -8.32459   30.63564   33.40174
      H    H11117    -7.24503   31.63992   33.05842
      O    O11118    -7.41061   26.97360   30.16961
      H    H11119    -8.35024   27.13500   30.25486
      H    H11120    -7.09228   27.69217   29.62321
      O    O11121    -0.88933   31.65546   40.14751
      H    H11122    -1.71747   31.72477   39.67253
      H    H11123    -0.29428   32.24089   39.67910
      O    O11124    -3.36779   32.26393   33.67642
      H    H11125    -3.98654   31.92589   33.02905
      H    H11126    -3.38534   31.61991   34.38434
      O    O11127    -3.92513   28.44239   41.09300
      H    H11128    -4.33801   29.26776   41.34700
      H    H11129    -4.65753   27.85689   40.90064
      O    O11130    -3.23512   38.48832   41.78110
      H    H11131    -3.71206   39.29554   41.58836
      H    H11132    -3.91894   37.83615   41.93372
      O    O11133    -5.19132   31.50262   30.68369
      H    H11134    -4.75199   30.66486   30.53748
      H    H11135    -4.47847   32.13556   30.77011
      O    O11136    -7.08178   36.44222   34.65182
      H    H11137    -6.64219   37.18466   34.23736
      H    H11138    -7.14309   36.68488   35.57571
      O    O11139    -1.60960   22.75690   28.99780
      H    H11140    -1.92234   22.84958   29.89770
      H    H11141    -0.84835   23.33500   28.94754
      O    O11142     0.34480   38.24952   46.85024
      H    H11143     0.82077   38.72780   47.52914
      H    H11144     0.96552   38.18126   46.12479
      O    O11145    -0.25187   35.44080   44.01024
      H    H11146    -0.12557   35.20199   43.09196
      H    H11147    -0.20974   34.60925   44.48245
      O    O11148    -6.39020   39.14360   42.57972
      H    H11149    -5.87573   39.05440   43.38196
      H    H11150    -7.23329   39.48957   42.87251
      O    O11151    -4.41476   39.42913   32.00812
      H    H11152    -4.57465   39.13943   32.90630
      H    H11153    -4.58009   38.65315   31.47264
      O    O11154    -4.71215   36.93789   30.56792
      H    H11155    -5.40563   36.93562   29.90815
      H    H11156    -3.96986   36.51382   30.13734
      O    O11157    -5.14715   38.56416   34.64277
      H    H11158    -4.69146   37.78310   34.95663
      H    H11159    -4.80790   39.27484   35.18689
      O    O11160    -0.39947   27.49405   44.97521
      H    H11161    -1.01505   28.00201   44.44676
      H    H11162    -0.71983   26.59388   44.91781
      O    O11163    -8.33804   26.33324   42.44143
      H    H11164    -8.80010   26.54154   43.25342
      H    H11165    -8.74023   25.51917   42.13850
      O    O11166    -3.33759   27.55413   43.57110
      H    H11167    -4.18823   27.25471   43.89200
      H    H11168    -3.49741   27.79833   42.65948
      O    O11169    -6.24262   29.05431   45.67098
      H    H11170    -5.91728   28.22068   45.33120
      H    H11171    -5.45459   29.57716   45.81881
      O    O11172    -5.60382   28.59608   33.16509
      H    H11173    -6.20293   29.31966   32.98145
      H    H11174    -5.05586   28.53376   32.38273
      O    O11175    -6.99734   27.23243   35.19542
      H    H11176    -6.60438   27.54965   34.38229
      H    H11177    -6.63565   26.35362   35.30987
      O    O11178    -8.68812   25.98316   46.45510
      H    H11179    -9.37829   25.79038   47.08971
      H    H11180    -7.94489   26.26663   46.98753
      O    O11181    -6.41182   29.82301   39.29049
      H    H11182    -7.14371   30.33169   39.63950
      H    H11183    -6.80939   29.00600   38.98937
      O    O11184    -5.94923   25.27637   38.70279
      H    H11185    -5.93196   25.72724   39.54697
      H    H11186    -6.19767   24.37694   38.91613
      O    O11187    -2.52216   22.68959   44.54143
      H    H11188    -2.19758   21.95856   45.06722
      H    H11189    -2.48651   22.37096   43.63953
      O    O11190    -2.59637   32.80210   38.15003
      H    H11191    -1.87646   33.29763   37.75964
      H    H11192    -2.79819   32.12389   37.50542
      O    O11193    -7.13538   24.19590   32.29297
      H    H11194    -7.94892   23.69722   32.21750
      H    H11195    -7.32918   25.03572   31.87660
      O    O11196    -7.21449   32.87301   44.03693
      H    H11197    -7.28076   31.95258   43.78269
      H    H11198    -7.84398   32.97055   44.75139
      O    O11199    -4.42054   28.56786   30.58918
      H    H11200    -3.53258   28.87959   30.41432
      H    H11201    -4.45003   27.69509   30.19724
      O    O11202    -8.42448   34.74023   31.26800
      H    H11203    -8.08291   35.48446   30.77233
      H    H11204    -9.25321   35.05335   31.63048
      O    O11205    -7.28282   35.69507   43.78731
      H    H11206    -7.26837   34.76316   43.56920
      H    H11207    -7.99031   35.78104   44.42629
      O    O11208    -2.14911   29.87905   30.05717
      H    H11209    -2.23274   30.31047   29.20681
      H    H11210    -1.42969   30.33888   30.48985
      O    O11211    -1.07170   32.33580   43.13417
      H    H11212    -1.79688   32.92868   42.93711
      H    H11213    -0.54415   32.32815   42.33550
      O    O11214    -1.12039   36.73327   32.78538
      H    H11215    -1.76277   36.07884   33.05976
      H    H11216    -1.50732   37.13878   32.00945
      O    O11217    -5.54174   34.06182   36.63255
      H    H11218    -5.18936   33.46463   35.97269
      H    H11219    -6.42551   33.73624   36.80338
      O    O11220    -7.84943   37.33682   40.88136
      H    H11221    -7.20521   37.54276   41.55870
      H    H11222    -7.48649   36.57566   40.42844
      O    O11223    -6.57622   35.34006   39.59910
      H    H11224    -5.93400   34.63937   39.71232
      H    H11225    -6.05129   36.11990   39.41879
      O    O11226    -2.73065   35.62492   29.32302
      H    H11227    -2.95689   34.90796   29.91548
      H    H11228    -3.12103   35.37616   28.48519
      O    O11229    -4.80246   36.13955   42.80271
      H    H11230    -4.46684   36.72622   43.48050
      H    H11231    -5.72243   36.00882   43.03249
      O    O11232    -3.14902   33.54211   30.98443
      H    H11233    -3.43685   34.00338   31.77222
      H    H11234    -2.35381   33.08189   31.25286
      O    O11235    -5.75824   26.42130   41.33520
      H    H11236    -5.39016   25.60082   41.66315
      H    H11237    -6.61842   26.48149   41.75076
      O    O11238    -2.39204   25.37699   32.14395
      H    H11239    -3.02072   25.48156   31.42978
      H    H11240    -2.88685   25.59667   32.93334
      O    O11241    -7.94622   37.09755   29.57735
      H    H11242    -7.84503   36.89395   28.64755
      H    H11243    -8.84605   36.84338   29.78213
      O    O11244    -8.79804   29.07526   41.55899
      H    H11245    -8.29952   29.54984   42.22418
      H    H11246    -8.65575   28.15161   41.76600
      O    O11247    -6.39209   24.38065   34.99932
      H    H11248    -6.51531   24.39927   34.05027
      H    H11249    -5.44364   24.42855   35.11916
      O    O11250    -1.59136   25.29205   42.40183
      H    H11251    -2.09400   26.03259   42.74121
      H    H11252    -0.77569   25.68045   42.08551
      O    O11253    -3.29916   30.53537   35.84797
      H    H11254    -4.24014   30.55039   36.02274
      H    H11255    -2.98475   29.74897   36.29400
      O    O11256    -1.29660   37.70626   37.52339
      H    H11257    -1.17186   38.52937   37.99578
      H    H11258    -0.43004   37.49533   37.17581
      O    O11259    -5.98255   35.09197   46.33121
      H    H11260    -6.58874   35.11513   45.59078
      H    H11261    -6.28714   34.36027   46.86793
      O    O11262    -4.55252   38.82000   44.94215
      H    H11263    -3.60034   38.73580   44.89217
      H    H11264    -4.69969   39.48417   45.61553
      O    O11265    -1.66160   38.19942   30.44134
      H    H11266    -1.94745   37.78593   29.62676
      H    H11267    -1.85964   39.12819   30.32139
      O    O11268    -6.95660   33.25475   29.48610
      H    H11269    -7.50559   33.70168   30.13037
      H    H11270    -6.33467   32.74968   30.00987
      O    O11271    -2.90311   34.60896   45.41832
      H    H11272    -2.16216   34.94654   44.91507
      H    H11273    -3.66584   34.77817   44.86530
      O    O11274    -8.77632   31.23760   28.63034
      H    H11275    -8.25576   30.52251   28.26445
      H    H11276    -8.12948   31.87619   28.93039
      O    O11277    -4.22854   32.66044   43.95385
      H    H11278    -3.81444   32.81495   44.80289
      H    H11279    -5.16344   32.78597   44.11642
      O    O11280    -3.75632   30.00006   45.95776
      H    H11281    -3.17425   29.24529   45.86981
      H    H11282    -3.58015   30.53080   45.18091
      O    O11283    -7.13063   30.34411   43.30722
      H    H11284    -7.01101   29.74822   44.04671
      H    H11285    -6.27123   30.38108   42.88735
      O    O11286    -4.79184   30.89783   41.88347
      H    H11287    -5.31832   31.42209   41.27999
      H    H11288    -4.44870   31.53057   42.51445
      O    O11289    -5.54441   26.50283   44.79811
      H    H11290    -6.23286   25.84098   44.73311
      H    H11291    -4.82381   26.05665   45.24295
      O    O11292    -4.91437   23.09799   30.85713
      H    H11293    -4.63414   22.25478   31.21307
      H    H11294    -5.68779   23.33030   31.37101
      O    O11295    -8.76005   40.15291   43.29788
      H    H11296    -8.83418   41.05643   43.60511
      H    H11297    -9.66217   39.83410   43.27008
      O    O11298    -8.21152   39.31877   30.92051
      H    H11299    -7.31644   39.65726   30.94239
      H    H11300    -8.17976   38.59671   30.29294
      O    O11301    -1.23209   37.84913   43.62713
      H    H11302    -1.83189   37.90839   42.88352
      H    H11303    -1.10270   36.90963   43.75682
      O    O11304     0.00806   35.59091   28.96410
      H    H11305    -0.82265   35.65858   29.43483
      H    H11306     0.18524   36.48133   28.66079
      O    O11307    -0.53630   32.33566   31.46752
      H    H11308     0.22560   32.90533   31.57349
      H    H11309    -0.52086   31.76838   32.23835
      O    O11310     0.46970   33.19067   36.31172
      H    H11311     0.84058   32.40740   35.90531
      H    H11312     1.10989   33.87958   36.13345
      O    O11313    -2.54692   34.57433   41.72475
      H    H11314    -3.36094   35.00405   41.98733
      H    H11315    -2.13950   35.18617   41.11165
      O    O11316    -0.48438   32.62910   28.62478
      H    H11317    -0.20949   33.53699   28.49670
      H    H11318    -0.67330   32.56535   29.56097
      O    O11319    -4.08682   25.65358   29.92014
      H    H11320    -3.66833   25.46668   29.07980
      H    H11321    -4.39321   24.80149   30.23043
      O    O11322    -0.58784   30.56600   33.61772
      H    H11323    -0.96348   29.79879   33.18585
      H    H11324    -1.31753   30.94827   34.10521
      O    O11325    -1.19788   29.71315   43.25167
      H    H11326    -1.42927   29.48443   42.35147
      H    H11327    -0.93743   30.63311   43.20616
      O    O11328    -2.75908   24.93879   46.02964
      H    H11329    -1.88206   24.94713   46.41304
      H    H11330    -2.74699   24.20188   45.41888
      O    O11331    -1.31275   28.79175   36.91844
      H    H11332    -0.78900   28.29801   36.28746
      H    H11333    -0.72681   28.92678   37.66320
      O    O11334    -1.13378   28.87573   40.44040
      H    H11335    -2.08351   28.84209   40.55490
      H    H11336    -0.95248   29.78575   40.20537
      O    O11337    -1.82275   28.04908   32.85768
      H    H11338    -1.32684   27.81617   33.64257
      H    H11339    -2.02114   27.21027   32.44145
      O    O11340    -0.39404   26.68518   35.39145
      H    H11341    -0.50411   26.53078   36.32968
      H    H11342     0.36672   26.15727   35.14899
      O    O11343    -2.04746   22.62459   41.84975
      H    H11344    -1.41024   23.23800   42.21567
      H    H11345    -1.89997   22.66066   40.90467
      O    O11346     0.49499   24.51597   28.63207
      H    H11347     1.41992   24.38409   28.42389
      H    H11348     0.47257   24.59525   29.58571
      O    O11349     0.56884   25.28704   31.25774
      H    H11350    -0.22601   25.22155   31.78703
      H    H11351     0.77317   26.22210   31.24627
      O    O11352    -2.48932   39.32619   35.25158
      H    H11353    -1.89341   39.00465   34.57502
      H    H11354    -2.23150   38.85337   36.04290
      O    O11355    -8.67702   23.77721   44.75726
      H    H11356    -8.73813   24.36939   45.50680
      H    H11357    -7.73698   23.66981   44.61229
      O    O11358    -6.03956   23.43422   44.39649
      H    H11359    -5.42552   23.75214   43.73460
      H    H11360    -5.49460   22.94907   45.01608
      O    O11361     0.37796   39.33338   41.80267
      H    H11362    -0.11621   39.73027   41.08539
      H    H11363    -0.23071   38.70830   42.19640
      O    O11364    -5.29876   21.99743   40.72342
      H    H11365    -6.17277   22.33094   40.52071
      H    H11366    -5.40768   21.52475   41.54861
      O    O11367    -4.39156   24.20452   42.10759
      H    H11368    -4.72022   23.38969   41.72776
      H    H11369    -3.44333   24.16150   41.98416
      O    O11370    -1.93810   39.97572   39.08135
      H    H11371    -2.39780   40.72730   38.70715
      H    H11372    -2.56685   39.25637   39.02283
      O    O11373    -8.76897   39.17539   39.08306
      H    H11374    -8.48119   38.92082   38.20636
      H    H11375    -8.25665   38.62313   39.67362
      O    O11376    -7.55127   22.91441   39.66271
      H    H11377    -8.33409   23.38896   39.94239
      H    H11378    -7.84498   22.00990   39.55403
      O    O11379    -2.99917   23.61672   37.70762
      H    H11380    -2.55836   23.56123   36.85978
      H    H11381    -3.26841   24.53252   37.77864
      O    O11382    -1.13531   23.24825   35.71850
      H    H11383    -1.19647   22.30437   35.57160
      H    H11384    -0.35611   23.35626   36.26385
      O    O11385    -5.16335   21.99733   36.41262
      H    H11386    -4.56042   22.56935   36.88747
      H    H11387    -5.90405   22.56128   36.19001
      O    O11388    -2.01989   22.39949   31.68665
      H    H11389    -1.82483   23.29783   31.95339
      H    H11390    -2.80691   22.16820   32.17994
      O    O11391    -8.70174   40.09700   46.44988
      H    H11392    -7.77501   39.86143   46.49348
      H    H11393    -8.71670   40.92420   45.96848
      O    O11394    -0.46723   39.63956   33.44730
      H    H11395    -0.29201   38.95333   32.80340
      H    H11396    -1.16508   40.16427   33.05497
      O    O11397    -4.91383   22.17684   46.79211
      H    H11398    -5.02729   22.49630   47.68727
      H    H11399    -4.09686   22.57809   46.49584
      O    O11400    -2.13398   39.32399   46.27398
      H    H11401    -1.34145   38.82891   46.06658
      H    H11402    -1.84067   40.00300   46.88154
      O    O11403    12.76633   30.19608   35.92994
      H    H11404    12.68574   29.28154   35.65911
      H    H11405    12.35278   30.69279   35.22391
      O    O11406    10.89814   31.97399   37.81086
      H    H11407    10.12235   31.49403   38.10072
      H    H11408    11.54943   31.29455   37.63648
      O    O11409     4.91472   32.28597   38.68844
      H    H11410     4.08321   32.03084   39.08809
      H    H11411     5.52282   32.35704   39.42423
      O    O11412    14.91888   36.38000   36.59078
      H    H11413    14.45703   35.60873   36.91949
      H    H11414    15.73144   36.40661   37.09602
      O    O11415     4.89485   36.31998   38.88424
      H    H11416     5.19765   35.42975   38.70526
      H    H11417     5.63921   36.87700   38.65647
      O    O11418     3.32392   27.24616   32.47268
      H    H11419     2.43559   27.58775   32.37067
      H    H11420     3.60803   27.04619   31.58076
      O    O11421     1.28722   29.84672   38.35665
      H    H11422     1.85883   29.07894   38.35701
      H    H11423     1.28737   30.14560   37.44731
      O    O11424    11.14521   38.66581   36.21118
      H    H11425    10.52636   39.12156   35.64062
      H    H11426    12.00039   38.82095   35.81015
      O    O11427    10.33904   34.64970   37.81788
      H    H11428    10.26986   33.70870   37.65679
      H    H11429    11.10102   34.73985   38.39014
      O    O11430     2.52970   25.25516   40.14354
      H    H11431     2.34999   24.35773   40.42382
      H    H11432     2.12771   25.80234   40.81824
      O    O11433    11.36955   27.45674   38.04477
      H    H11434    11.74604   26.58393   37.93214
      H    H11435    11.27150   27.79261   37.15382
      O    O11436     5.50005   25.82931   33.50652
      H    H11437     5.60673   26.72968   33.81339
      H    H11438     4.58929   25.78110   33.21598
      O    O11439    15.15197   24.95179   34.97761
      H    H11440    15.97293   24.46144   35.02016
      H    H11441    15.18537   25.54155   35.73079
      O    O11442     3.14837   27.75121   38.75178
      H    H11443     3.82938   28.01504   39.37052
      H    H11444     2.83318   26.91129   39.08558
      O    O11445     7.34083   28.79794   37.83904
      H    H11446     7.84865   29.29604   38.47954
      H    H11447     7.87215   28.02146   37.66297
      O    O11448    19.44192   26.96846   41.54197
      H    H11449    18.73714   27.35663   41.02348
      H    H11450    19.70771   27.66349   42.14406
      O    O11451     5.62444   23.43780   42.10538
      H    H11452     5.62628   23.95504   41.29997
      H    H11453     4.79487   22.96082   42.08237
      O    O11454    12.01155   33.54973   33.60437
      H    H11455    11.39327   34.01467   33.04064
      H    H11456    12.52387   34.24248   34.02132
      O    O11457     6.87472   33.07732   40.28273
      H    H11458     6.54166   33.70421   40.92483
      H    H11459     7.05139   33.60350   39.50289
      O    O11460    15.38811   26.89182   37.75036
      H    H11461    14.68367   27.18031   38.33067
      H    H11462    15.74933   27.70184   37.39032
      O    O11463     5.30597   25.14879   40.11242
      H    H11464     5.64765   25.99300   39.81781
      H    H11465     4.36755   25.29717   40.22896
      O    O11466     6.08663   35.04540   42.09765
      H    H11467     6.70403   35.72050   41.81609
      H    H11468     5.22594   35.45419   42.00640
      O    O11469     1.37987   34.23538   30.97833
      H    H11470     1.00266   34.72409   30.24682
      H    H11471     1.63717   34.90791   31.60898
      O    O11472    17.00439   36.50934   40.01311
      H    H11473    16.32074   37.17925   40.00478
      H    H11474    17.54382   36.70740   39.24760
      O    O11475    18.45681   26.33730   38.14128
      H    H11476    17.50930   26.37120   38.27283
      H    H11477    18.78180   27.15120   38.52622
      O    O11478     8.98876   22.63702   36.43688
      H    H11479     9.29626   22.08171   35.72043
      H    H11480     8.05883   22.77147   36.25418
      O    O11481    14.54027   38.35375   38.72763
      H    H11482    14.55298   37.94998   37.85985
      H    H11483    13.98779   39.12848   38.62377
      O    O11484    15.83481   35.07537   33.81664
      H    H11485    15.72444   34.13281   33.94159
      H    H11486    15.83163   35.43694   34.70292
      O    O11487    13.93881   33.25673   40.05589
      H    H11488    14.35569   33.04275   39.22123
      H    H11489    14.66279   33.51401   40.62675
      O    O11490    11.37684   30.70190   33.17289
      H    H11491    10.44976   30.63564   33.40174
      H    H11492    11.52932   31.63992   33.05842
      O    O11493    11.36374   26.97360   30.16961
      H    H11494    10.42411   27.13500   30.25486
      H    H11495    11.68207   27.69217   29.62321
      O    O11496    17.88502   31.65546   40.14751
      H    H11497    17.05688   31.72477   39.67253
      H    H11498    18.48007   32.24089   39.67910
      O    O11499    15.40656   32.26393   33.67642
      H    H11500    14.78781   31.92589   33.02905
      H    H11501    15.38901   31.61991   34.38434
      O    O11502    14.84922   28.44239   41.09300
      H    H11503    14.43634   29.26776   41.34700
      H    H11504    14.11682   27.85689   40.90064
      O    O11505     6.98250   31.22838   35.95487
      H    H11506     6.57820   30.51610   35.45946
      H    H11507     7.06881   30.88370   36.84367
      O    O11508     7.45067   34.91513   38.11879
      H    H11509     7.15350   34.30968   37.43957
      H    H11510     8.40065   34.95287   38.00772
      O    O11511     5.69536   28.00270   39.73477
      H    H11512     6.24682   28.11223   38.96010
      H    H11513     6.20971   28.37646   40.45029
      O    O11514    15.53923   38.48832   41.78110
      H    H11515    15.06229   39.29554   41.58836
      H    H11516    14.85541   37.83615   41.93372
      O    O11517     6.54251   34.65330   44.76957
      H    H11518     5.64537   34.87730   45.01691
      H    H11519     6.56780   34.77680   43.82071
      O    O11520    13.58303   31.50262   30.68369
      H    H11521    14.02236   30.66486   30.53748
      H    H11522    14.29588   32.13556   30.77011
      O    O11523     5.36963   31.52464   43.34530
      H    H11524     5.23041   32.39692   43.71404
      H    H11525     4.48777   31.18192   43.20010
      O    O11526    11.69257   36.44222   34.65182
      H    H11527    12.13216   37.18466   34.23736
      H    H11528    11.63126   36.68488   35.57571
      O    O11529     7.16767   37.46681   45.55382
      H    H11530     7.13921   37.87110   44.68666
      H    H11531     7.00417   36.53784   45.39098
      O    O11532    17.16475   22.75690   28.99780
      H    H11533    16.85201   22.84958   29.89770
      H    H11534    17.92600   23.33500   28.94754
      O    O11535     3.68296   30.12288   33.45553
      H    H11536     3.56272   30.84909   32.84366
      H    H11537     3.37305   29.35317   32.97832
      O    O11538    19.11915   38.24952   46.85024
      H    H11539    19.59512   38.72780   47.52914
      H    H11540    19.73987   38.18126   46.12479
      O    O11541     1.32150   33.29439   39.26240
      H    H11542     1.39954   33.42927   38.31797
      H    H11543     1.93567   32.58598   39.45521
      O    O11544     2.56626   34.99441   35.67301
      H    H11545     2.15907   35.13587   34.81837
      H    H11546     3.45756   34.71043   35.47013
      O    O11547    18.52248   35.44080   44.01024
      H    H11548    18.64878   35.20199   43.09196
      H    H11549    18.56461   34.60925   44.48245
      O    O11550    12.38415   39.14360   42.57972
      H    H11551    12.89862   39.05440   43.38196
      H    H11552    11.54106   39.48957   42.87251
      O    O11553    14.35959   39.42913   32.00812
      H    H11554    14.19970   39.13943   32.90630
      H    H11555    14.19426   38.65315   31.47264
      O    O11556     6.83843   39.20899   33.78528
      H    H11557     6.66268   38.29254   33.57206
      H    H11558     5.98400   39.56772   34.02506
      O    O11559    14.06220   36.93789   30.56792
      H    H11560    13.36872   36.93562   29.90815
      H    H11561    14.80449   36.51382   30.13734
      O    O11562    13.62720   38.56416   34.64277
      H    H11563    14.08289   37.78310   34.95663
      H    H11564    13.96645   39.27484   35.18689
      O    O11565    18.37488   27.49405   44.97521
      H    H11566    17.75930   28.00201   44.44676
      H    H11567    18.05452   26.59388   44.91781
      O    O11568     1.37745   34.33581   41.80184
      H    H11569     1.54056   33.86634   40.98378
      H    H11570     1.84270   33.82816   42.46673
      O    O11571     6.14933   23.46638   36.83790
      H    H11572     5.70614   24.24734   36.50635
      H    H11573     6.70783   23.78937   37.54499
      O    O11574    10.43631   26.33324   42.44143
      H    H11575     9.97425   26.54154   43.25342
      H    H11576    10.03412   25.51917   42.13850
      O    O11577    15.43676   27.55413   43.57110
      H    H11578    14.58612   27.25471   43.89200
      H    H11579    15.27694   27.79833   42.65948
      O    O11580    12.53173   29.05431   45.67098
      H    H11581    12.85707   28.22068   45.33120
      H    H11582    13.31976   29.57716   45.81881
      O    O11583     9.26521   23.08745   31.71848
      H    H11584     8.64063   23.08344   32.44381
      H    H11585     9.17822   22.22055   31.32208
      O    O11586     8.18692   24.01112   38.69686
      H    H11587     8.48415   24.91740   38.61606
      H    H11588     8.73547   23.52299   38.08282
      O    O11589     5.94075   28.58974   34.56602
      H    H11590     5.71484   28.37346   35.47069
      H    H11591     5.16000   29.02259   34.22062
      O    O11592    13.17053   28.59608   33.16509
      H    H11593    12.57142   29.31966   32.98145
      H    H11594    13.71849   28.53376   32.38273
      O    O11595     8.38067   29.48830   45.23205
      H    H11596     8.28503   28.54777   45.08209
      H    H11597     9.22387   29.70981   44.83686
      O    O11598    11.77701   27.23243   35.19542
      H    H11599    12.16997   27.54965   34.38229
      H    H11600    12.13870   26.35362   35.30987
      O    O11601     3.51173   25.89967   43.38543
      H    H11602     3.11806   26.74719   43.59271
      H    H11603     2.82357   25.26230   43.57629
      O    O11604    10.08623   25.98316   46.45510
      H    H11605     9.39606   25.79038   47.08971
      H    H11606    10.82946   26.26663   46.98753
      O    O11607     0.81343   23.82251   37.41844
      H    H11608     0.52474   24.39280   38.13093
      H    H11609     1.55801   23.34296   37.78156
      O    O11610     1.00045   27.76452   28.62871
      H    H11611     0.91792   28.70760   28.77021
      H    H11612     0.64876   27.62201   27.74994
      O    O11613    12.36253   29.82301   39.29049
      H    H11614    11.63064   30.33169   39.63950
      H    H11615    11.96496   29.00600   38.98937
      O    O11616     8.80027   26.49843   37.69574
      H    H11617     8.80387   26.05742   36.84620
      H    H11618     9.69538   26.82016   37.80293
      O    O11619     4.65050   26.38108   36.65516
      H    H11620     4.31051   26.85860   37.41187
      H    H11621     3.88824   25.92759   36.29527
      O    O11622     8.86228   27.49963   30.68642
      H    H11623     8.98356   27.45828   31.63500
      H    H11624     8.47713   28.36205   30.53109
      O    O11625    12.82512   25.27637   38.70279
      H    H11626    12.84239   25.72724   39.54697
      H    H11627    12.57668   24.37694   38.91613
      O    O11628     7.87443   29.80975   30.08475
      H    H11629     7.30612   29.36157   29.45834
      H    H11630     8.58333   30.16903   29.55126
      O    O11631    16.25219   22.68959   44.54143
      H    H11632    16.57677   21.95856   45.06722
      H    H11633    16.28784   22.37096   43.63953
      O    O11634     2.95135   33.71095   43.96142
      H    H11635     2.56683   33.07032   44.55972
      H    H11636     3.26257   34.41456   44.53090
      O    O11637     9.10106   30.55860   39.44228
      H    H11638     9.46808   30.08446   40.18842
      H    H11639     8.91157   31.43276   39.78312
      O    O11640     1.96511   25.30297   35.57163
      H    H11641     1.67980   24.93854   36.40949
      H    H11642     1.90300   24.57102   34.95795
      O    O11643     6.89100   29.59947   41.76071
      H    H11644     6.58671   30.47867   41.98574
      H    H11645     7.84565   29.65945   41.79645
      O    O11646     5.41918   33.80557   32.35739
      H    H11647     4.64541   33.26533   32.19726
      H    H11648     6.14864   33.28623   32.01917
      O    O11649    16.17798   32.80210   38.15003
      H    H11650    16.89789   33.29763   37.75964
      H    H11651    15.97616   32.12389   37.50542
      O    O11652    11.63897   24.19590   32.29297
      H    H11653    10.82543   23.69722   32.21750
      H    H11654    11.44517   25.03572   31.87660
      O    O11655    11.55986   32.87301   44.03693
      H    H11656    11.49359   31.95258   43.78269
      H    H11657    10.93037   32.97055   44.75139
      O    O11658    14.35381   28.56786   30.58918
      H    H11659    15.24177   28.87959   30.41432
      H    H11660    14.32432   27.69509   30.19724
      O    O11661     5.46292   33.47361   35.99527
      H    H11662     5.98079   32.67043   35.94096
      H    H11663     5.01132   33.41152   36.83695
      O    O11664    10.34987   34.74023   31.26800
      H    H11665    10.69144   35.48446   30.77233
      H    H11666     9.52114   35.05335   31.63048
      O    O11667     2.94737   30.43974   42.90784
      H    H11668     2.58887   31.10513   43.49518
      H    H11669     2.65283   29.60810   43.27910
      O    O11670     6.14869   30.89817   45.79180
      H    H11671     5.84870   31.04388   44.89458
      H    H11672     6.91981   30.33870   45.69914
      O    O11673    11.49153   35.69507   43.78731
      H    H11674    11.50598   34.76316   43.56920
      H    H11675    10.78404   35.78104   44.42629
      O    O11676    16.62524   29.87905   30.05717
      H    H11677    16.54161   30.31047   29.20681
      H    H11678    17.34466   30.33888   30.48985
      O    O11679    17.70265   32.33580   43.13417
      H    H11680    16.97747   32.92868   42.93711
      H    H11681    18.23020   32.32815   42.33550
      O    O11682    17.65396   36.73327   32.78538
      H    H11683    17.01158   36.07884   33.05976
      H    H11684    17.26703   37.13878   32.00945
      O    O11685    13.23261   34.06182   36.63255
      H    H11686    13.58499   33.46463   35.97269
      H    H11687    12.34884   33.73624   36.80338
      O    O11688     9.31894   34.82159   34.03959
      H    H11689    10.00605   35.36851   34.42035
      H    H11690     8.53218   35.36566   34.07455
      O    O11691     1.45818   30.43887   29.53130
      H    H11692     2.32766   30.72135   29.81489
      H    H11693     0.96721   31.25246   29.41618
      O    O11694     8.62166   31.82619   33.65213
      H    H11695     9.07794   32.63671   33.87815
      H    H11696     8.27048   31.50850   34.48398
      O    O11697    10.92492   37.33682   40.88136
      H    H11698    11.56914   37.54276   41.55870
      H    H11699    11.28786   36.57566   40.42844
      O    O11700     4.52284   22.16995   34.12438
      H    H11701     4.39430   22.16174   35.07287
      H    H11702     3.69904   22.50826   33.77348
      O    O11703    12.19813   35.34006   39.59910
      H    H11704    12.84035   34.63937   39.71232
      H    H11705    12.72306   36.11990   39.41879
      O    O11706    16.04370   35.62492   29.32302
      H    H11707    15.81746   34.90796   29.91548
      H    H11708    15.65332   35.37616   28.48519
      O    O11709    13.97189   36.13955   42.80271
      H    H11710    14.30751   36.72622   43.48050
      H    H11711    13.05192   36.00882   43.03249
      O    O11712     1.82530   39.65161   30.09746
      H    H11713     2.18507   40.25054   29.44319
      H    H11714     1.68454   40.19760   30.87097
      O    O11715     1.52223   23.92907   43.58505
      H    H11716     0.80808   24.12876   44.19031
      H    H11717     1.94173   23.15302   43.95653
      O    O11718    15.62533   33.54211   30.98443
      H    H11719    15.33750   34.00338   31.77222
      H    H11720    16.42054   33.08189   31.25286
      O    O11721     1.80949   37.91709   44.57170
      H    H11722     1.91860   36.97657   44.43124
      H    H11723     1.15755   38.18257   43.92308
      O    O11724     9.80075   36.18868   45.97152
      H    H11725     9.48044   35.46961   46.51609
      H    H11726     9.12658   36.86419   46.04512
      O    O11727     7.84217   37.03473   30.91483
      H    H11728     7.83318   37.76770   30.29928
      H    H11729     6.92200   36.78788   31.00753
      O    O11730     3.44283   32.25622   31.65951
      H    H11731     2.83562   32.99611   31.66904
      H    H11732     3.91776   32.34615   30.83333
      O    O11733    13.01611   26.42130   41.33520
      H    H11734    13.38419   25.60082   41.66315
      H    H11735    12.15593   26.48149   41.75076
      O    O11736    16.38231   25.37699   32.14395
      H    H11737    15.75363   25.48156   31.42978
      H    H11738    15.88750   25.59667   32.93334
      O    O11739    10.82813   37.09755   29.57735
      H    H11740    10.92932   36.89395   28.64755
      H    H11741     9.92830   36.84338   29.78213
      O    O11742     8.35071   27.65559   33.55974
      H    H11743     7.64233   28.12422   34.00110
      H    H11744     8.63516   26.99779   34.19426
      O    O11745     9.97631   29.07526   41.55899
      H    H11746    10.47483   29.54984   42.22418
      H    H11747    10.11860   28.15161   41.76600
      O    O11748    12.38226   24.38065   34.99932
      H    H11749    12.25904   24.39927   34.05027
      H    H11750    13.33071   24.42855   35.11916
      O    O11751     9.46994   39.61618   34.27212
      H    H11752     9.72409   39.57832   33.35005
      H    H11753     8.52118   39.48952   34.26494
      O    O11754     6.55422   25.96409   30.93481
      H    H11755     7.40327   26.40111   30.86883
      H    H11756     6.18734   26.27612   31.76202
      O    O11757    17.18299   25.29205   42.40183
      H    H11758    16.68035   26.03259   42.74121
      H    H11759    17.99866   25.68045   42.08551
      O    O11760    15.47519   30.53537   35.84797
      H    H11761    14.53421   30.55039   36.02274
      H    H11762    15.78960   29.74897   36.29400
      O    O11763     5.45336   32.21733   29.40836
      H    H11764     6.21969   32.10547   29.97091
      H    H11765     5.53083   31.52113   28.75604
      O    O11766     4.14803   29.64984   30.09165
      H    H11767     4.22839   28.70259   30.20339
      H    H11768     5.04001   29.98053   30.19772
      O    O11769    17.47775   37.70626   37.52339
      H    H11770    17.60249   38.52937   37.99578
      H    H11771    18.34431   37.49533   37.17581
      O    O11772     4.94951   39.79938   37.19511
      H    H11773     5.68575   39.25092   37.46596
      H    H11774     5.33360   40.66498   37.05571
      O    O11775     1.83405   35.86673   33.06926
      H    H11776     0.90803   36.10885   33.05980
      H    H11777     2.29970   36.69416   32.94773
      O    O11778     3.95533   38.98398   46.38367
      H    H11779     4.75661   39.30519   46.79721
      H    H11780     3.44052   38.62354   47.10566
      O    O11781     8.05974   38.97241   29.01766
      H    H11782     8.85260   39.26129   28.56584
      H    H11783     7.54017   38.54162   28.33891
      O    O11784    12.79180   35.09197   46.33121
      H    H11785    12.18561   35.11513   45.59078
      H    H11786    12.48721   34.36027   46.86793
      O    O11787    14.22183   38.82000   44.94215
      H    H11788    15.17401   38.73580   44.89217
      H    H11789    14.07466   39.48417   45.61553
      O    O11790    17.11275   38.19942   30.44134
      H    H11791    16.82690   37.78593   29.62676
      H    H11792    16.91471   39.12819   30.32139
      O    O11793     1.67511   31.47133   45.32727
      H    H11794     2.17902   30.89206   45.89889
      H    H11795     0.93586   31.75535   45.86491
      O    O11796     8.57748   34.19275   28.88190
      H    H11797     8.47254   33.57798   29.60804
      H    H11798     8.40990   33.66934   28.09820
      O    O11799     8.72891   32.87843   44.86082
      H    H11800     7.96348   33.44693   44.77629
      H    H11801     8.91050   32.58605   43.96765
      O    O11802    11.81775   33.25475   29.48610
      H    H11803    11.26876   33.70168   30.13037
      H    H11804    12.43968   32.74968   30.00987
      O    O11805    15.87124   34.60896   45.41832
      H    H11806    16.61219   34.94654   44.91507
      H    H11807    15.10851   34.77817   44.86530
      O    O11808     3.70742   29.61429   46.22228
      H    H11809     3.74796   29.31568   47.13080
      H    H11810     4.56197   30.01505   46.06303
      O    O11811     7.48526   32.21384   31.38263
      H    H11812     7.90690   32.04783   32.22577
      H    H11813     7.61035   31.40387   30.88814
      O    O11814     5.64800   28.19350   44.18973
      H    H11815     5.11765   27.70259   43.56206
      H    H11816     6.31681   28.62192   43.65552
      O    O11817     9.99803   31.23760   28.63034
      H    H11818    10.51859   30.52251   28.26445
      H    H11819    10.64487   31.87619   28.93039
      O    O11820    14.54581   32.66044   43.95385
      H    H11821    14.95991   32.81495   44.80289
      H    H11822    13.61091   32.78597   44.11642
      O    O11823    15.01803   30.00006   45.95776
      H    H11824    15.60010   29.24529   45.86981
      H    H11825    15.19420   30.53080   45.18091
      O    O11826     6.13523   25.15974   44.26946
      H    H11827     6.04092   24.54181   43.54454
      H    H11828     5.55497   25.88636   44.04245
      O    O11829     8.90138   23.71706   41.30219
      H    H11830     8.45311   23.73949   40.45675
      H    H11831     8.26790   23.31896   41.89922
      O    O11832     9.30733   32.61249   41.92344
      H    H11833     9.72614   33.45577   41.75106
      H    H11834     8.38820   32.74970   41.69412
      O    O11835    11.64372   30.34411   43.30722
      H    H11836    11.76334   29.74822   44.04671
      H    H11837    12.50312   30.38108   42.88735
      O    O11838    13.98251   30.89783   41.88347
      H    H11839    13.45603   31.42209   41.27999
      H    H11840    14.32565   31.53057   42.51445
      O    O11841     6.38115   28.28717   28.32844
      H    H11842     6.18006   27.42390   28.68978
      H    H11843     6.21036   28.20050   27.39060
      O    O11844     7.15807   38.91779   43.03921
      H    H11845     6.62018   39.64240   42.72008
      H    H11846     7.41147   38.44083   42.24895
      O    O11847     8.41060   26.88625   44.56480
      H    H11848     9.00057   26.57783   45.25259
      H    H11849     7.59262   26.41422   44.72079
      O    O11850    13.22994   26.50283   44.79811
      H    H11851    12.54149   25.84098   44.73311
      H    H11852    13.95054   26.05665   45.24295
      O    O11853    13.85998   23.09799   30.85713
      H    H11854    14.14021   22.25478   31.21307
      H    H11855    13.08656   23.33030   31.37101
      O    O11856     5.17943   25.38723   28.31623
      H    H11857     5.48202   25.39397   27.40815
      H    H11858     5.91889   25.03701   28.81300
      O    O11859    10.01430   40.15291   43.29788
      H    H11860     9.94017   41.05643   43.60511
      H    H11861     9.11218   39.83410   43.27008
      O    O11862     8.39792   24.33069   29.30185
      H    H11863     8.05012   23.65309   28.72210
      H    H11864     8.59920   23.86964   30.11619
      O    O11865    10.56283   39.31877   30.92051
      H    H11866    11.45791   39.65726   30.94239
      H    H11867    10.59459   38.59671   30.29294
      O    O11868     4.20244   34.69147   29.14921
      H    H11869     4.63993   35.23444   29.80497
      H    H11870     4.68722   33.86617   29.15885
      O    O11871     1.41702   37.48037   36.60124
      H    H11872     1.74733   36.61248   36.36910
      H    H11873     1.84612   37.68623   37.43173
      O    O11874     6.01322   35.81127   34.26144
      H    H11875     5.71277   35.68777   35.16183
      H    H11876     5.90697   34.95213   33.85301
      O    O11877     1.90605   38.34743   39.33940
      H    H11878     1.46914   38.52751   40.17182
      H    H11879     2.47381   39.10489   39.19757
      O    O11880    17.54226   37.84913   43.62713
      H    H11881    16.94246   37.90839   42.88352
      H    H11882    17.67165   36.90963   43.75682
      O    O11883    18.78241   35.59091   28.96410
      H    H11884    17.95170   35.65858   29.43483
      H    H11885    18.95959   36.48133   28.66079
      O    O11886    18.23805   32.33566   31.46752
      H    H11887    18.99995   32.90533   31.57349
      H    H11888    18.25349   31.76838   32.23835
      O    O11889     1.73849   30.85946   35.69829
      H    H11890     1.08337   30.59062   35.05426
      H    H11891     2.57628   30.74990   35.24849
      O    O11892    19.24405   33.19067   36.31172
      H    H11893    19.61493   32.40740   35.90531
      H    H11894    19.88424   33.87958   36.13345
      O    O11895    16.22743   34.57433   41.72475
      H    H11896    15.41341   35.00405   41.98733
      H    H11897    16.63485   35.18617   41.11165
      O    O11898    18.28997   32.62910   28.62478
      H    H11899    18.56486   33.53699   28.49670
      H    H11900    18.10105   32.56535   29.56097
      O    O11901    14.68753   25.65358   29.92014
      H    H11902    15.10602   25.46668   29.07980
      H    H11903    14.38114   24.80149   30.23043
      O    O11904    18.18651   30.56600   33.61772
      H    H11905    17.81087   29.79879   33.18585
      H    H11906    17.45682   30.94827   34.10521
      O    O11907     2.77608   31.24471   40.23862
      H    H11908     3.14339   31.15745   41.11823
      H    H11909     2.20716   30.48137   40.13931
      O    O11910    17.57647   29.71315   43.25167
      H    H11911    17.34508   29.48443   42.35147
      H    H11912    17.83692   30.63311   43.20616
      O    O11913     2.32768   28.15562   44.14447
      H    H11914     1.43329   28.12230   44.48384
      H    H11915     2.86744   28.35430   44.90959
      O    O11916    16.01527   24.93879   46.02964
      H    H11917    16.89229   24.94713   46.41304
      H    H11918    16.02736   24.20188   45.41888
      O    O11919     0.95230   28.06935   31.64082
      H    H11920     0.04870   28.33237   31.46599
      H    H11921     1.43636   28.34047   30.86082
      O    O11922    17.46160   28.79175   36.91844
      H    H11923    17.98535   28.29801   36.28746
      H    H11924    18.04754   28.92678   37.66320
      O    O11925    17.64057   28.87573   40.44040
      H    H11926    16.69084   28.84209   40.55490
      H    H11927    17.82187   29.78575   40.20537
      O    O11928     3.49502   27.12590   29.55026
      H    H11929     4.20419   26.70422   29.06499
      H    H11930     2.77901   27.19343   28.91860
      O    O11931     3.14243   23.17984   28.59053
      H    H11932     3.86525   23.72073   28.90865
      H    H11933     3.41489   22.90618   27.71468
      O    O11934    16.95160   28.04908   32.85768
      H    H11935    17.44751   27.81617   33.64257
      H    H11936    16.75321   27.21027   32.44145
      O    O11937     2.83165   22.43045   38.49279
      H    H11938     3.47927   21.88019   38.05230
      H    H11939     3.25184   22.68477   39.31437
      O    O11940    18.38031   26.68518   35.39145
      H    H11941    18.27024   26.53078   36.32968
      H    H11942    19.14107   26.15727   35.14899
      O    O11943    16.72689   22.62459   41.84975
      H    H11944    17.36411   23.23800   42.21567
      H    H11945    16.87438   22.66066   40.90467
      O    O11946    19.26934   24.51597   28.63207
      H    H11947    20.19427   24.38409   28.42389
      H    H11948    19.24692   24.59525   29.58571
      O    O11949    19.34319   25.28704   31.25774
      H    H11950    18.54834   25.22155   31.78703
      H    H11951    19.54752   26.22210   31.24627
      O    O11952    16.28503   39.32619   35.25158
      H    H11953    16.88094   39.00465   34.57502
      H    H11954    16.54285   38.85337   36.04290
      O    O11955     2.58485   22.58602   41.23532
      H    H11956     2.23633   23.04240   42.00114
      H    H11957     2.25362   21.69173   41.31756
      O    O11958     4.19129   35.75798   45.40064
      H    H11959     4.14825   35.38727   46.28208
      H    H11960     4.32239   36.69574   45.54082
      O    O11961     7.89189   37.31394   41.00161
      H    H11962     7.65103   37.58140   40.11466
      H    H11963     8.83216   37.48451   41.05670
      O    O11964    10.09733   23.77721   44.75726
      H    H11965    10.03622   24.36939   45.50680
      H    H11966    11.03737   23.66981   44.61229
      O    O11967    12.73479   23.43422   44.39649
      H    H11968    13.34883   23.75214   43.73460
      H    H11969    13.27975   22.94907   45.01608
      O    O11970    19.15231   39.33338   41.80267
      H    H11971    18.65814   39.73027   41.08539
      H    H11972    18.54364   38.70830   42.19640
      O    O11973     3.25692   22.11364   44.51040
      H    H11974     3.80522   21.93245   43.74701
      H    H11975     3.32245   21.32305   45.04603
      O    O11976     4.03009   38.70421   42.52042
      H    H11977     3.43612   38.57268   43.25942
      H    H11978     4.02248   37.86802   42.05463
      O    O11979    13.47559   21.99743   40.72342
      H    H11980    12.60158   22.33094   40.52071
      H    H11981    13.36667   21.52475   41.54861
      O    O11982    14.38279   24.20452   42.10759
      H    H11983    14.05413   23.38969   41.72776
      H    H11984    15.33102   24.16150   41.98416
      O    O11985    16.83625   39.97572   39.08135
      H    H11986    16.37655   40.72730   38.70715
      H    H11987    16.20750   39.25637   39.02283
      O    O11988     3.66132   36.07004   41.47122
      H    H11989     2.93472   35.45057   41.40382
      H    H11990     3.72223   36.46411   40.60103
      O    O11991     7.26583   38.28454   38.25616
      H    H11992     7.78233   37.67328   37.73099
      H    H11993     7.91556   38.78742   38.74726
      O    O11994    10.00538   39.17539   39.08306
      H    H11995    10.29316   38.92082   38.20636
      H    H11996    10.51770   38.62313   39.67362
      O    O11997    11.22308   22.91441   39.66271
      H    H11998    10.44026   23.38896   39.94239
      H    H11999    10.92937   22.00990   39.55403
      O    O12000    15.77518   23.61672   37.70762
      H    H12001    16.21599   23.56123   36.85978
      H    H12002    15.50594   24.53252   37.77864
      O    O12003    17.63904   23.24825   35.71850
      H    H12004    17.57788   22.30437   35.57160
      H    H12005    18.41824   23.35626   36.26385
      O    O12006     1.94432   39.38748   34.68090
      H    H12007     1.77652   38.75455   35.37909
      H    H12008     1.07777   39.59342   34.33032
      O    O12009     2.56712   23.21916   32.18408
      H    H12010     3.32505   23.33205   31.61049
      H    H12011     2.10483   24.05608   32.13843
      O    O12012     9.10850   25.33309   35.17431
      H    H12013     8.29595   24.95878   34.83390
      H    H12014     9.61266   24.57760   35.47643
      O    O12015    13.61100   21.99733   36.41262
      H    H12016    14.21393   22.56935   36.88747
      H    H12017    12.87030   22.56128   36.19001
      O    O12018    16.75446   22.39949   31.68665
      H    H12019    16.94952   23.29783   31.95339
      H    H12020    15.96744   22.16820   32.17994
      O    O12021     3.55059   38.08081   32.12591
      H    H12022     3.02535   38.46161   31.42211
      H    H12023     3.47504   38.70588   32.84688
      O    O12024     4.93963   23.74557   30.72428
      H    H12025     5.46891   22.95855   30.59507
      H    H12026     5.57246   24.42469   30.95783
      O    O12027     7.13342   23.48308   33.77882
      H    H12028     6.50369   22.78181   33.94583
      H    H12029     6.59393   24.24349   33.56213
      O    O12030    10.07261   40.09700   46.44988
      H    H12031    10.99934   39.86143   46.49348
      H    H12032    10.05765   40.92420   45.96848
      O    O12033    18.30712   39.63956   33.44730
      H    H12034    18.48234   38.95333   32.80340
      H    H12035    17.60927   40.16427   33.05497
      O    O12036     7.25897   22.76148   46.21407
      H    H12037     6.97740   23.26484   45.45015
      H    H12038     7.64094   21.96365   45.84828
      O    O12039     6.14988   40.02904   31.00084
      H    H12040     6.88176   39.74497   30.45322
      H    H12041     6.40925   39.79037   31.89077
      O    O12042     5.31136   36.14552   31.00547
      H    H12043     4.68225   36.61403   31.55405
      H    H12044     5.42614   35.30044   31.44009
      O    O12045    13.86052   22.17684   46.79211
      H    H12046    13.74706   22.49630   47.68727
      H    H12047    14.67749   22.57809   46.49584
      O    O12048    16.64037   39.32399   46.27398
      H    H12049    17.43290   38.82891   46.06658
      H    H12050    16.93368   40.00300   46.88154
      O    O12051    31.54068   30.19608   35.92994
      H    H12052    31.46009   29.28154   35.65911
      H    H12053    31.12713   30.69279   35.22391
      O    O12054    29.67249   31.97399   37.81086
      H    H12055    28.89670   31.49403   38.10072
      H    H12056    30.32378   31.29455   37.63648
      O    O12057    23.68907   32.28597   38.68844
      H    H12058    22.85756   32.03084   39.08809
      H    H12059    24.29717   32.35704   39.42423
      O    O12060    33.69323   36.38000   36.59078
      H    H12061    33.23138   35.60873   36.91949
      H    H12062    34.50579   36.40661   37.09602
      O    O12063    23.66920   36.31998   38.88424
      H    H12064    23.97200   35.42975   38.70526
      H    H12065    24.41356   36.87700   38.65647
      O    O12066    22.09827   27.24616   32.47268
      H    H12067    21.20994   27.58775   32.37067
      H    H12068    22.38238   27.04619   31.58076
      O    O12069    20.06157   29.84672   38.35665
      H    H12070    20.63318   29.07894   38.35701
      H    H12071    20.06172   30.14560   37.44731
      O    O12072    29.91956   38.66581   36.21118
      H    H12073    29.30071   39.12156   35.64062
      H    H12074    30.77474   38.82095   35.81015
      O    O12075    29.11339   34.64970   37.81788
      H    H12076    29.04421   33.70870   37.65679
      H    H12077    29.87537   34.73985   38.39014
      O    O12078    21.30405   25.25516   40.14354
      H    H12079    21.12434   24.35773   40.42382
      H    H12080    20.90206   25.80234   40.81824
      O    O12081    30.14390   27.45674   38.04477
      H    H12082    30.52039   26.58393   37.93214
      H    H12083    30.04585   27.79261   37.15382
      O    O12084    24.27440   25.82931   33.50652
      H    H12085    24.38108   26.72968   33.81339
      H    H12086    23.36364   25.78110   33.21598
      O    O12087    33.92632   24.95179   34.97761
      H    H12088    34.74728   24.46144   35.02016
      H    H12089    33.95972   25.54155   35.73079
      O    O12090    21.92272   27.75121   38.75178
      H    H12091    22.60373   28.01504   39.37052
      H    H12092    21.60753   26.91129   39.08558
      O    O12093    26.11518   28.79794   37.83904
      H    H12094    26.62300   29.29604   38.47954
      H    H12095    26.64650   28.02146   37.66297
      O    O12096    38.21627   26.96846   41.54197
      H    H12097    37.51149   27.35663   41.02348
      H    H12098    38.48206   27.66349   42.14406
      O    O12099    24.39879   23.43780   42.10538
      H    H12100    24.40063   23.95504   41.29997
      H    H12101    23.56922   22.96082   42.08237
      O    O12102    30.78590   33.54973   33.60437
      H    H12103    30.16762   34.01467   33.04064
      H    H12104    31.29822   34.24248   34.02132
      O    O12105    25.64907   33.07732   40.28273
      H    H12106    25.31601   33.70421   40.92483
      H    H12107    25.82574   33.60350   39.50289
      O    O12108    34.16246   26.89182   37.75036
      H    H12109    33.45802   27.18031   38.33067
      H    H12110    34.52368   27.70184   37.39032
      O    O12111    24.08032   25.14879   40.11242
      H    H12112    24.42200   25.99300   39.81781
      H    H12113    23.14190   25.29717   40.22896
      O    O12114    24.86098   35.04540   42.09765
      H    H12115    25.47838   35.72050   41.81609
      H    H12116    24.00029   35.45419   42.00640
      O    O12117    20.15422   34.23538   30.97833
      H    H12118    19.77701   34.72409   30.24682
      H    H12119    20.41152   34.90791   31.60898
      O    O12120    35.77874   36.50934   40.01311
      H    H12121    35.09509   37.17925   40.00478
      H    H12122    36.31817   36.70740   39.24760
      O    O12123    37.23116   26.33730   38.14128
      H    H12124    36.28365   26.37120   38.27283
      H    H12125    37.55615   27.15120   38.52622
      O    O12126    27.76311   22.63702   36.43688
      H    H12127    28.07061   22.08171   35.72043
      H    H12128    26.83318   22.77147   36.25418
      O    O12129    33.31462   38.35375   38.72763
      H    H12130    33.32733   37.94998   37.85985
      H    H12131    32.76214   39.12848   38.62377
      O    O12132    34.60916   35.07537   33.81664
      H    H12133    34.49879   34.13281   33.94159
      H    H12134    34.60598   35.43694   34.70292
      O    O12135    32.71316   33.25673   40.05589
      H    H12136    33.13004   33.04275   39.22123
      H    H12137    33.43714   33.51401   40.62675
      O    O12138    30.15119   30.70190   33.17289
      H    H12139    29.22411   30.63564   33.40174
      H    H12140    30.30367   31.63992   33.05842
      O    O12141    30.13809   26.97360   30.16961
      H    H12142    29.19846   27.13500   30.25486
      H    H12143    30.45642   27.69217   29.62321
      O    O12144    36.65937   31.65546   40.14751
      H    H12145    35.83123   31.72477   39.67253
      H    H12146    37.25442   32.24089   39.67910
      O    O12147    34.18091   32.26393   33.67642
      H    H12148    33.56216   31.92589   33.02905
      H    H12149    34.16336   31.61991   34.38434
      O    O12150    33.62357   28.44239   41.09300
      H    H12151    33.21069   29.26776   41.34700
      H    H12152    32.89117   27.85689   40.90064
      O    O12153    25.75685   31.22838   35.95487
      H    H12154    25.35255   30.51610   35.45946
      H    H12155    25.84316   30.88370   36.84367
      O    O12156    26.22502   34.91513   38.11879
      H    H12157    25.92785   34.30968   37.43957
      H    H12158    27.17500   34.95287   38.00772
      O    O12159    24.46971   28.00270   39.73477
      H    H12160    25.02117   28.11223   38.96010
      H    H12161    24.98406   28.37646   40.45029
      O    O12162    34.31358   38.48832   41.78110
      H    H12163    33.83664   39.29554   41.58836
      H    H12164    33.62976   37.83615   41.93372
      O    O12165    25.31686   34.65330   44.76957
      H    H12166    24.41972   34.87730   45.01691
      H    H12167    25.34215   34.77680   43.82071
      O    O12168    32.35738   31.50262   30.68369
      H    H12169    32.79671   30.66486   30.53748
      H    H12170    33.07023   32.13556   30.77011
      O    O12171    24.14398   31.52464   43.34530
      H    H12172    24.00476   32.39692   43.71404
      H    H12173    23.26212   31.18192   43.20010
      O    O12174    30.46692   36.44222   34.65182
      H    H12175    30.90651   37.18466   34.23736
      H    H12176    30.40561   36.68488   35.57571
      O    O12177    25.94202   37.46681   45.55382
      H    H12178    25.91356   37.87110   44.68666
      H    H12179    25.77852   36.53784   45.39098
      O    O12180    35.93910   22.75690   28.99780
      H    H12181    35.62636   22.84958   29.89770
      H    H12182    36.70035   23.33500   28.94754
      O    O12183    22.45731   30.12288   33.45553
      H    H12184    22.33707   30.84909   32.84366
      H    H12185    22.14740   29.35317   32.97832
      O    O12186    37.89350   38.24952   46.85024
      H    H12187    38.36947   38.72780   47.52914
      H    H12188    38.51422   38.18126   46.12479
      O    O12189    20.09585   33.29439   39.26240
      H    H12190    20.17389   33.42927   38.31797
      H    H12191    20.71002   32.58598   39.45521
      O    O12192    21.34061   34.99441   35.67301
      H    H12193    20.93342   35.13587   34.81837
      H    H12194    22.23191   34.71043   35.47013
      O    O12195    37.29683   35.44080   44.01024
      H    H12196    37.42313   35.20199   43.09196
      H    H12197    37.33896   34.60925   44.48245
      O    O12198    31.15850   39.14360   42.57972
      H    H12199    31.67297   39.05440   43.38196
      H    H12200    30.31541   39.48957   42.87251
      O    O12201    33.13394   39.42913   32.00812
      H    H12202    32.97405   39.13943   32.90630
      H    H12203    32.96861   38.65315   31.47264
      O    O12204    25.61278   39.20899   33.78528
      H    H12205    25.43703   38.29254   33.57206
      H    H12206    24.75835   39.56772   34.02506
      O    O12207    32.83655   36.93789   30.56792
      H    H12208    32.14307   36.93562   29.90815
      H    H12209    33.57884   36.51382   30.13734
      O    O12210    32.40155   38.56416   34.64277
      H    H12211    32.85724   37.78310   34.95663
      H    H12212    32.74080   39.27484   35.18689
      O    O12213    37.14923   27.49405   44.97521
      H    H12214    36.53365   28.00201   44.44676
      H    H12215    36.82887   26.59388   44.91781
      O    O12216    20.15180   34.33581   41.80184
      H    H12217    20.31491   33.86634   40.98378
      H    H12218    20.61705   33.82816   42.46673
      O    O12219    24.92368   23.46638   36.83790
      H    H12220    24.48049   24.24734   36.50635
      H    H12221    25.48218   23.78937   37.54499
      O    O12222    29.21066   26.33324   42.44143
      H    H12223    28.74860   26.54154   43.25342
      H    H12224    28.80847   25.51917   42.13850
      O    O12225    34.21111   27.55413   43.57110
      H    H12226    33.36047   27.25471   43.89200
      H    H12227    34.05129   27.79833   42.65948
      O    O12228    31.30608   29.05431   45.67098
      H    H12229    31.63142   28.22068   45.33120
      H    H12230    32.09411   29.57716   45.81881
      O    O12231    28.03956   23.08745   31.71848
      H    H12232    27.41498   23.08344   32.44381
      H    H12233    27.95257   22.22055   31.32208
      O    O12234    26.96127   24.01112   38.69686
      H    H12235    27.25850   24.91740   38.61606
      H    H12236    27.50982   23.52299   38.08282
      O    O12237    24.71510   28.58974   34.56602
      H    H12238    24.48919   28.37346   35.47069
      H    H12239    23.93435   29.02259   34.22062
      O    O12240    31.94488   28.59608   33.16509
      H    H12241    31.34577   29.31966   32.98145
      H    H12242    32.49284   28.53376   32.38273
      O    O12243    27.15502   29.48830   45.23205
      H    H12244    27.05938   28.54777   45.08209
      H    H12245    27.99822   29.70981   44.83686
      O    O12246    30.55136   27.23243   35.19542
      H    H12247    30.94432   27.54965   34.38229
      H    H12248    30.91305   26.35362   35.30987
      O    O12249    22.28608   25.89967   43.38543
      H    H12250    21.89241   26.74719   43.59271
      H    H12251    21.59792   25.26230   43.57629
      O    O12252    28.86058   25.98316   46.45510
      H    H12253    28.17041   25.79038   47.08971
      H    H12254    29.60381   26.26663   46.98753
      O    O12255    19.58778   23.82251   37.41844
      H    H12256    19.29909   24.39280   38.13093
      H    H12257    20.33236   23.34296   37.78156
      O    O12258    19.77480   27.76452   28.62871
      H    H12259    19.69227   28.70760   28.77021
      H    H12260    19.42311   27.62201   27.74994
      O    O12261    31.13688   29.82301   39.29049
      H    H12262    30.40499   30.33169   39.63950
      H    H12263    30.73931   29.00600   38.98937
      O    O12264    27.57462   26.49843   37.69574
      H    H12265    27.57822   26.05742   36.84620
      H    H12266    28.46973   26.82016   37.80293
      O    O12267    23.42485   26.38108   36.65516
      H    H12268    23.08486   26.85860   37.41187
      H    H12269    22.66259   25.92759   36.29527
      O    O12270    27.63663   27.49963   30.68642
      H    H12271    27.75791   27.45828   31.63500
      H    H12272    27.25148   28.36205   30.53109
      O    O12273    31.59947   25.27637   38.70279
      H    H12274    31.61674   25.72724   39.54697
      H    H12275    31.35103   24.37694   38.91613
      O    O12276    26.64878   29.80975   30.08475
      H    H12277    26.08047   29.36157   29.45834
      H    H12278    27.35768   30.16903   29.55126
      O    O12279    35.02654   22.68959   44.54143
      H    H12280    35.35112   21.95856   45.06722
      H    H12281    35.06219   22.37096   43.63953
      O    O12282    21.72570   33.71095   43.96142
      H    H12283    21.34118   33.07032   44.55972
      H    H12284    22.03692   34.41456   44.53090
      O    O12285    27.87541   30.55860   39.44228
      H    H12286    28.24243   30.08446   40.18842
      H    H12287    27.68592   31.43276   39.78312
      O    O12288    20.73946   25.30297   35.57163
      H    H12289    20.45415   24.93854   36.40949
      H    H12290    20.67735   24.57102   34.95795
      O    O12291    25.66535   29.59947   41.76071
      H    H12292    25.36106   30.47867   41.98574
      H    H12293    26.62000   29.65945   41.79645
      O    O12294    24.19353   33.80557   32.35739
      H    H12295    23.41976   33.26533   32.19726
      H    H12296    24.92299   33.28623   32.01917
      O    O12297    34.95233   32.80210   38.15003
      H    H12298    35.67224   33.29763   37.75964
      H    H12299    34.75051   32.12389   37.50542
      O    O12300    30.41332   24.19590   32.29297
      H    H12301    29.59978   23.69722   32.21750
      H    H12302    30.21952   25.03572   31.87660
      O    O12303    30.33421   32.87301   44.03693
      H    H12304    30.26794   31.95258   43.78269
      H    H12305    29.70472   32.97055   44.75139
      O    O12306    33.12816   28.56786   30.58918
      H    H12307    34.01612   28.87959   30.41432
      H    H12308    33.09867   27.69509   30.19724
      O    O12309    24.23727   33.47361   35.99527
      H    H12310    24.75514   32.67043   35.94096
      H    H12311    23.78567   33.41152   36.83695
      O    O12312    29.12422   34.74023   31.26800
      H    H12313    29.46579   35.48446   30.77233
      H    H12314    28.29549   35.05335   31.63048
      O    O12315    21.72172   30.43974   42.90784
      H    H12316    21.36322   31.10513   43.49518
      H    H12317    21.42718   29.60810   43.27910
      O    O12318    24.92304   30.89817   45.79180
      H    H12319    24.62305   31.04388   44.89458
      H    H12320    25.69416   30.33870   45.69914
      O    O12321    30.26588   35.69507   43.78731
      H    H12322    30.28033   34.76316   43.56920
      H    H12323    29.55839   35.78104   44.42629
      O    O12324    35.39959   29.87905   30.05717
      H    H12325    35.31596   30.31047   29.20681
      H    H12326    36.11901   30.33888   30.48985
      O    O12327    36.47700   32.33580   43.13417
      H    H12328    35.75182   32.92868   42.93711
      H    H12329    37.00455   32.32815   42.33550
      O    O12330    36.42831   36.73327   32.78538
      H    H12331    35.78593   36.07884   33.05976
      H    H12332    36.04138   37.13878   32.00945
      O    O12333    32.00696   34.06182   36.63255
      H    H12334    32.35934   33.46463   35.97269
      H    H12335    31.12319   33.73624   36.80338
      O    O12336    28.09329   34.82159   34.03959
      H    H12337    28.78040   35.36851   34.42035
      H    H12338    27.30653   35.36566   34.07455
      O    O12339    20.23253   30.43887   29.53130
      H    H12340    21.10201   30.72135   29.81489
      H    H12341    19.74156   31.25246   29.41618
      O    O12342    27.39601   31.82619   33.65213
      H    H12343    27.85229   32.63671   33.87815
      H    H12344    27.04483   31.50850   34.48398
      O    O12345    29.69927   37.33682   40.88136
      H    H12346    30.34349   37.54276   41.55870
      H    H12347    30.06221   36.57566   40.42844
      O    O12348    30.97248   35.34006   39.59910
      H    H12349    31.61470   34.63937   39.71232
      H    H12350    31.49741   36.11990   39.41879
      O    O12351    34.81805   35.62492   29.32302
      H    H12352    34.59181   34.90796   29.91548
      H    H12353    34.42767   35.37616   28.48519
      O    O12354    32.74624   36.13955   42.80271
      H    H12355    33.08186   36.72622   43.48050
      H    H12356    31.82627   36.00882   43.03249
      O    O12357    20.59965   39.65161   30.09746
      H    H12358    20.95942   40.25054   29.44319
      H    H12359    20.45889   40.19760   30.87097
      O    O12360    20.29658   23.92907   43.58505
      H    H12361    19.58243   24.12876   44.19031
      H    H12362    20.71608   23.15302   43.95653
      O    O12363    34.39968   33.54211   30.98443
      H    H12364    34.11185   34.00338   31.77222
      H    H12365    35.19489   33.08189   31.25286
      O    O12366    20.58384   37.91709   44.57170
      H    H12367    20.69295   36.97657   44.43124
      H    H12368    19.93190   38.18257   43.92308
      O    O12369    28.57510   36.18868   45.97152
      H    H12370    28.25479   35.46961   46.51609
      H    H12371    27.90093   36.86419   46.04512
      O    O12372    26.61652   37.03473   30.91483
      H    H12373    26.60753   37.76770   30.29928
      H    H12374    25.69635   36.78788   31.00753
      O    O12375    22.21718   32.25622   31.65951
      H    H12376    21.60997   32.99611   31.66904
      H    H12377    22.69211   32.34615   30.83333
      O    O12378    31.79046   26.42130   41.33520
      H    H12379    32.15854   25.60082   41.66315
      H    H12380    30.93028   26.48149   41.75076
      O    O12381    35.15666   25.37699   32.14395
      H    H12382    34.52798   25.48156   31.42978
      H    H12383    34.66185   25.59667   32.93334
      O    O12384    29.60248   37.09755   29.57735
      H    H12385    29.70367   36.89395   28.64755
      H    H12386    28.70265   36.84338   29.78213
      O    O12387    27.12506   27.65559   33.55974
      H    H12388    26.41668   28.12422   34.00110
      H    H12389    27.40951   26.99779   34.19426
      O    O12390    28.75066   29.07526   41.55899
      H    H12391    29.24918   29.54984   42.22418
      H    H12392    28.89295   28.15161   41.76600
      O    O12393    31.15661   24.38065   34.99932
      H    H12394    31.03339   24.39927   34.05027
      H    H12395    32.10506   24.42855   35.11916
      O    O12396    28.24429   39.61618   34.27212
      H    H12397    28.49844   39.57832   33.35005
      H    H12398    27.29553   39.48952   34.26494
      O    O12399    25.32857   25.96409   30.93481
      H    H12400    26.17762   26.40111   30.86883
      H    H12401    24.96169   26.27612   31.76202
      O    O12402    35.95734   25.29205   42.40183
      H    H12403    35.45470   26.03259   42.74121
      H    H12404    36.77301   25.68045   42.08551
      O    O12405    34.24954   30.53537   35.84797
      H    H12406    33.30856   30.55039   36.02274
      H    H12407    34.56395   29.74897   36.29400
      O    O12408    24.22771   32.21733   29.40836
      H    H12409    24.99404   32.10547   29.97091
      H    H12410    24.30518   31.52113   28.75604
      O    O12411    22.92238   29.64984   30.09165
      H    H12412    23.00274   28.70259   30.20339
      H    H12413    23.81436   29.98053   30.19772
      O    O12414    36.25210   37.70626   37.52339
      H    H12415    36.37684   38.52937   37.99578
      H    H12416    37.11866   37.49533   37.17581
      O    O12417    23.72386   39.79938   37.19511
      H    H12418    24.46010   39.25092   37.46596
      H    H12419    24.10795   40.66498   37.05571
      O    O12420    20.60840   35.86673   33.06926
      H    H12421    19.68238   36.10885   33.05980
      H    H12422    21.07405   36.69416   32.94773
      O    O12423    22.72968   38.98398   46.38367
      H    H12424    23.53096   39.30519   46.79721
      H    H12425    22.21487   38.62354   47.10566
      O    O12426    26.83409   38.97241   29.01766
      H    H12427    27.62695   39.26129   28.56584
      H    H12428    26.31452   38.54162   28.33891
      O    O12429    31.56615   35.09197   46.33121
      H    H12430    30.95996   35.11513   45.59078
      H    H12431    31.26156   34.36027   46.86793
      O    O12432    32.99618   38.82000   44.94215
      H    H12433    33.94836   38.73580   44.89217
      H    H12434    32.84901   39.48417   45.61553
      O    O12435    35.88710   38.19942   30.44134
      H    H12436    35.60125   37.78593   29.62676
      H    H12437    35.68906   39.12819   30.32139
      O    O12438    20.44946   31.47133   45.32727
      H    H12439    20.95337   30.89206   45.89889
      H    H12440    19.71021   31.75535   45.86491
      O    O12441    27.35183   34.19275   28.88190
      H    H12442    27.24689   33.57798   29.60804
      H    H12443    27.18425   33.66934   28.09820
      O    O12444    27.50326   32.87843   44.86082
      H    H12445    26.73783   33.44693   44.77629
      H    H12446    27.68485   32.58605   43.96765
      O    O12447    30.59210   33.25475   29.48610
      H    H12448    30.04311   33.70168   30.13037
      H    H12449    31.21403   32.74968   30.00987
      O    O12450    34.64559   34.60896   45.41832
      H    H12451    35.38654   34.94654   44.91507
      H    H12452    33.88286   34.77817   44.86530
      O    O12453    22.48177   29.61429   46.22228
      H    H12454    22.52231   29.31568   47.13080
      H    H12455    23.33632   30.01505   46.06303
      O    O12456    26.25961   32.21384   31.38263
      H    H12457    26.68125   32.04783   32.22577
      H    H12458    26.38470   31.40387   30.88814
      O    O12459    24.42235   28.19350   44.18973
      H    H12460    23.89200   27.70259   43.56206
      H    H12461    25.09116   28.62192   43.65552
      O    O12462    28.77238   31.23760   28.63034
      H    H12463    29.29294   30.52251   28.26445
      H    H12464    29.41922   31.87619   28.93039
      O    O12465    33.32016   32.66044   43.95385
      H    H12466    33.73426   32.81495   44.80289
      H    H12467    32.38526   32.78597   44.11642
      O    O12468    33.79238   30.00006   45.95776
      H    H12469    34.37445   29.24529   45.86981
      H    H12470    33.96855   30.53080   45.18091
      O    O12471    24.90958   25.15974   44.26946
      H    H12472    24.81527   24.54181   43.54454
      H    H12473    24.32932   25.88636   44.04245
      O    O12474    27.67573   23.71706   41.30219
      H    H12475    27.22746   23.73949   40.45675
      H    H12476    27.04225   23.31896   41.89922
      O    O12477    28.08168   32.61249   41.92344
      H    H12478    28.50049   33.45577   41.75106
      H    H12479    27.16255   32.74970   41.69412
      O    O12480    30.41807   30.34411   43.30722
      H    H12481    30.53769   29.74822   44.04671
      H    H12482    31.27747   30.38108   42.88735
      O    O12483    32.75686   30.89783   41.88347
      H    H12484    32.23038   31.42209   41.27999
      H    H12485    33.10000   31.53057   42.51445
      O    O12486    25.15550   28.28717   28.32844
      H    H12487    24.95441   27.42390   28.68978
      H    H12488    24.98471   28.20050   27.39060
      O    O12489    25.93242   38.91779   43.03921
      H    H12490    25.39453   39.64240   42.72008
      H    H12491    26.18582   38.44083   42.24895
      O    O12492    27.18495   26.88625   44.56480
      H    H12493    27.77492   26.57783   45.25259
      H    H12494    26.36697   26.41422   44.72079
      O    O12495    32.00429   26.50283   44.79811
      H    H12496    31.31584   25.84098   44.73311
      H    H12497    32.72489   26.05665   45.24295
      O    O12498    32.63433   23.09799   30.85713
      H    H12499    32.91456   22.25478   31.21307
      H    H12500    31.86091   23.33030   31.37101
      O    O12501    23.95378   25.38723   28.31623
      H    H12502    24.25637   25.39397   27.40815
      H    H12503    24.69324   25.03701   28.81300
      O    O12504    28.78865   40.15291   43.29788
      H    H12505    28.71452   41.05643   43.60511
      H    H12506    27.88653   39.83410   43.27008
      O    O12507    27.17227   24.33069   29.30185
      H    H12508    26.82447   23.65309   28.72210
      H    H12509    27.37355   23.86964   30.11619
      O    O12510    29.33718   39.31877   30.92051
      H    H12511    30.23226   39.65726   30.94239
      H    H12512    29.36894   38.59671   30.29294
      O    O12513    22.97679   34.69147   29.14921
      H    H12514    23.41428   35.23444   29.80497
      H    H12515    23.46157   33.86617   29.15885
      O    O12516    20.19137   37.48037   36.60124
      H    H12517    20.52168   36.61248   36.36910
      H    H12518    20.62047   37.68623   37.43173
      O    O12519    24.78757   35.81127   34.26144
      H    H12520    24.48712   35.68777   35.16183
      H    H12521    24.68132   34.95213   33.85301
      O    O12522    20.68040   38.34743   39.33940
      H    H12523    20.24349   38.52751   40.17182
      H    H12524    21.24816   39.10489   39.19757
      O    O12525    36.31661   37.84913   43.62713
      H    H12526    35.71681   37.90839   42.88352
      H    H12527    36.44600   36.90963   43.75682
      O    O12528    37.55676   35.59091   28.96410
      H    H12529    36.72605   35.65858   29.43483
      H    H12530    37.73394   36.48133   28.66079
      O    O12531    37.01240   32.33566   31.46752
      H    H12532    37.77430   32.90533   31.57349
      H    H12533    37.02784   31.76838   32.23835
      O    O12534    20.51284   30.85946   35.69829
      H    H12535    19.85772   30.59062   35.05426
      H    H12536    21.35063   30.74990   35.24849
      O    O12537    38.01840   33.19067   36.31172
      H    H12538    38.38928   32.40740   35.90531
      H    H12539    38.65859   33.87958   36.13345
      O    O12540    35.00178   34.57433   41.72475
      H    H12541    34.18776   35.00405   41.98733
      H    H12542    35.40920   35.18617   41.11165
      O    O12543    37.06432   32.62910   28.62478
      H    H12544    37.33921   33.53699   28.49670
      H    H12545    36.87540   32.56535   29.56097
      O    O12546    33.46188   25.65358   29.92014
      H    H12547    33.88037   25.46668   29.07980
      H    H12548    33.15549   24.80149   30.23043
      O    O12549    36.96086   30.56600   33.61772
      H    H12550    36.58522   29.79879   33.18585
      H    H12551    36.23117   30.94827   34.10521
      O    O12552    21.55043   31.24471   40.23862
      H    H12553    21.91774   31.15745   41.11823
      H    H12554    20.98151   30.48137   40.13931
      O    O12555    36.35082   29.71315   43.25167
      H    H12556    36.11943   29.48443   42.35147
      H    H12557    36.61127   30.63311   43.20616
      O    O12558    21.10203   28.15562   44.14447
      H    H12559    20.20764   28.12230   44.48384
      H    H12560    21.64179   28.35430   44.90959
      O    O12561    34.78962   24.93879   46.02964
      H    H12562    35.66664   24.94713   46.41304
      H    H12563    34.80171   24.20188   45.41888
      O    O12564    19.72665   28.06935   31.64082
      H    H12565    18.82305   28.33237   31.46599
      H    H12566    20.21071   28.34047   30.86082
      O    O12567    36.23595   28.79175   36.91844
      H    H12568    36.75970   28.29801   36.28746
      H    H12569    36.82189   28.92678   37.66320
      O    O12570    36.41492   28.87573   40.44040
      H    H12571    35.46519   28.84209   40.55490
      H    H12572    36.59622   29.78575   40.20537
      O    O12573    22.26937   27.12590   29.55026
      H    H12574    22.97854   26.70422   29.06499
      H    H12575    21.55336   27.19343   28.91860
      O    O12576    21.91678   23.17984   28.59053
      H    H12577    22.63960   23.72073   28.90865
      H    H12578    22.18924   22.90618   27.71468
      O    O12579    35.72595   28.04908   32.85768
      H    H12580    36.22186   27.81617   33.64257
      H    H12581    35.52756   27.21027   32.44145
      O    O12582    21.60600   22.43045   38.49279
      H    H12583    22.25362   21.88019   38.05230
      H    H12584    22.02619   22.68477   39.31437
      O    O12585    37.15466   26.68518   35.39145
      H    H12586    37.04459   26.53078   36.32968
      H    H12587    37.91542   26.15727   35.14899
      O    O12588    35.50124   22.62459   41.84975
      H    H12589    36.13846   23.23800   42.21567
      H    H12590    35.64873   22.66066   40.90467
      O    O12591    38.04369   24.51597   28.63207
      H    H12592    38.96862   24.38409   28.42389
      H    H12593    38.02127   24.59525   29.58571
      O    O12594    38.11754   25.28704   31.25774
      H    H12595    37.32269   25.22155   31.78703
      H    H12596    38.32187   26.22210   31.24627
      O    O12597    35.05938   39.32619   35.25158
      H    H12598    35.65529   39.00465   34.57502
      H    H12599    35.31720   38.85337   36.04290
      O    O12600    21.35920   22.58602   41.23532
      H    H12601    21.01068   23.04240   42.00114
      H    H12602    21.02797   21.69173   41.31756
      O    O12603    22.96564   35.75798   45.40064
      H    H12604    22.92260   35.38727   46.28208
      H    H12605    23.09674   36.69574   45.54082
      O    O12606    26.66624   37.31394   41.00161
      H    H12607    26.42538   37.58140   40.11466
      H    H12608    27.60651   37.48451   41.05670
      O    O12609    28.87168   23.77721   44.75726
      H    H12610    28.81057   24.36939   45.50680
      H    H12611    29.81172   23.66981   44.61229
      O    O12612    31.50914   23.43422   44.39649
      H    H12613    32.12318   23.75214   43.73460
      H    H12614    32.05410   22.94907   45.01608
      O    O12615    37.92666   39.33338   41.80267
      H    H12616    37.43249   39.73027   41.08539
      H    H12617    37.31799   38.70830   42.19640
      O    O12618    22.03127   22.11364   44.51040
      H    H12619    22.57957   21.93245   43.74701
      H    H12620    22.09680   21.32305   45.04603
      O    O12621    22.80444   38.70421   42.52042
      H    H12622    22.21047   38.57268   43.25942
      H    H12623    22.79683   37.86802   42.05463
      O    O12624    32.24994   21.99743   40.72342
      H    H12625    31.37593   22.33094   40.52071
      H    H12626    32.14102   21.52475   41.54861
      O    O12627    33.15714   24.20452   42.10759
      H    H12628    32.82848   23.38969   41.72776
      H    H12629    34.10537   24.16150   41.98416
      O    O12630    35.61060   39.97572   39.08135
      H    H12631    35.15090   40.72730   38.70715
      H    H12632    34.98185   39.25637   39.02283
      O    O12633    22.43567   36.07004   41.47122
      H    H12634    21.70907   35.45057   41.40382
      H    H12635    22.49658   36.46411   40.60103
      O    O12636    26.04018   38.28454   38.25616
      H    H12637    26.55668   37.67328   37.73099
      H    H12638    26.68991   38.78742   38.74726
      O    O12639    28.77973   39.17539   39.08306
      H    H12640    29.06751   38.92082   38.20636
      H    H12641    29.29205   38.62313   39.67362
      O    O12642    29.99743   22.91441   39.66271
      H    H12643    29.21461   23.38896   39.94239
      H    H12644    29.70372   22.00990   39.55403
      O    O12645    34.54953   23.61672   37.70762
      H    H12646    34.99034   23.56123   36.85978
      H    H12647    34.28029   24.53252   37.77864
      O    O12648    36.41339   23.24825   35.71850
      H    H12649    36.35223   22.30437   35.57160
      H    H12650    37.19259   23.35626   36.26385
      O    O12651    20.71867   39.38748   34.68090
      H    H12652    20.55087   38.75455   35.37909
      H    H12653    19.85212   39.59342   34.33032
      O    O12654    21.34147   23.21916   32.18408
      H    H12655    22.09940   23.33205   31.61049
      H    H12656    20.87918   24.05608   32.13843
      O    O12657    27.88285   25.33309   35.17431
      H    H12658    27.07030   24.95878   34.83390
      H    H12659    28.38701   24.57760   35.47643
      O    O12660    32.38535   21.99733   36.41262
      H    H12661    32.98828   22.56935   36.88747
      H    H12662    31.64465   22.56128   36.19001
      O    O12663    35.52881   22.39949   31.68665
      H    H12664    35.72387   23.29783   31.95339
      H    H12665    34.74179   22.16820   32.17994
      O    O12666    22.32494   38.08081   32.12591
      H    H12667    21.79970   38.46161   31.42211
      H    H12668    22.24939   38.70588   32.84688
      O    O12669    23.71398   23.74557   30.72428
      H    H12670    24.24326   22.95855   30.59507
      H    H12671    24.34681   24.42469   30.95783
      O    O12672    25.90777   23.48308   33.77882
      H    H12673    25.27804   22.78181   33.94583
      H    H12674    25.36828   24.24349   33.56213
      O    O12675    28.84696   40.09700   46.44988
      H    H12676    29.77369   39.86143   46.49348
      H    H12677    28.83200   40.92420   45.96848
      O    O12678    37.08147   39.63956   33.44730
      H    H12679    37.25669   38.95333   32.80340
      H    H12680    36.38362   40.16427   33.05497
      O    O12681    26.03332   22.76148   46.21407
      H    H12682    25.75175   23.26484   45.45015
      H    H12683    26.41529   21.96365   45.84828
      O    O12684    24.92423   40.02904   31.00084
      H    H12685    25.65611   39.74497   30.45322
      H    H12686    25.18360   39.79037   31.89077
      O    O12687    24.08571   36.14552   31.00547
      H    H12688    23.45660   36.61403   31.55405
      H    H12689    24.20049   35.30044   31.44009
      O    O12690    32.63487   22.17684   46.79211
      H    H12691    32.52141   22.49630   47.68727
      H    H12692    33.45184   22.57809   46.49584
      O    O12693    35.41472   39.32399   46.27398
      H    H12694    36.20725   38.82891   46.06658
      H    H12695    35.70803   40.00300   46.88154
      O    O12696    -6.00802   -7.35262   54.70429
      H    H12697    -6.08861   -8.26716   54.43346
      H    H12698    -6.42157   -6.85591   53.99826
      O    O12699    -7.87621   -5.57471   56.58521
      H    H12700    -8.65200   -6.05467   56.87507
      H    H12701    -7.22492   -6.25415   56.41083
      O    O12702    -3.85547   -1.16870   55.36513
      H    H12703    -4.31732   -1.93997   55.69384
      H    H12704    -3.04291   -1.14209   55.87037
      O    O12705    -7.62914    1.11711   54.98553
      H    H12706    -8.24799    1.57286   54.41497
      H    H12707    -6.77396    1.27225   54.58450
      O    O12708    -8.43531   -2.89900   56.59223
      H    H12709    -8.50449   -3.84000   56.43114
      H    H12710    -7.67333   -2.80885   57.16449
      O    O12711    -6.76280   -3.99897   52.37872
      H    H12712    -7.38108   -3.53403   51.81499
      H    H12713    -6.25048   -3.30622   52.79567
      O    O12714    -1.76996   -1.03936   58.78746
      H    H12715    -2.45361   -0.36945   58.77913
      H    H12716    -1.23053   -0.84130   58.02195
      O    O12717    -4.23408    0.80505   57.50198
      H    H12718    -4.22137    0.40128   56.63420
      H    H12719    -4.78656    1.57978   57.39812
      O    O12720    -2.93954   -2.47333   52.59099
      H    H12721    -3.04991   -3.41589   52.71594
      H    H12722    -2.94272   -2.11176   53.47727
      O    O12723    -4.83554   -4.29197   58.83024
      H    H12724    -4.41866   -4.50595   57.99558
      H    H12725    -4.11156   -4.03469   59.40110
      O    O12726    -7.39751   -6.84680   51.94724
      H    H12727    -8.32459   -6.91306   52.17609
      H    H12728    -7.24503   -5.90878   51.83277
      O    O12729    -0.88933   -5.89324   58.92186
      H    H12730    -1.71747   -5.82393   58.44688
      H    H12731    -0.29428   -5.30781   58.45345
      O    O12732    -3.36779   -5.28477   52.45077
      H    H12733    -3.98654   -5.62281   51.80340
      H    H12734    -3.38534   -5.92879   53.15869
      O    O12735    -3.92513   -9.10631   59.86735
      H    H12736    -4.33801   -8.28094   60.12135
      H    H12737    -4.65753   -9.69181   59.67499
      O    O12738    -3.23512    0.93962   60.55545
      H    H12739    -3.71206    1.74684   60.36271
      H    H12740    -3.91894    0.28745   60.70807
      O    O12741    -5.19132   -6.04608   49.45804
      H    H12742    -4.75199   -6.88384   49.31183
      H    H12743    -4.47847   -5.41314   49.54446
      O    O12744    -7.08178   -1.10648   53.42617
      H    H12745    -6.64219   -0.36404   53.01171
      H    H12746    -7.14309   -0.86382   54.35006
      O    O12747     0.34480    0.70082   65.62459
      H    H12748     0.82077    1.17910   66.30349
      H    H12749     0.96552    0.63256   64.89914
      O    O12750    -0.25187   -2.10790   62.78459
      H    H12751    -0.12557   -2.34671   61.86631
      H    H12752    -0.20974   -2.93945   63.25680
      O    O12753    -6.39020    1.59490   61.35407
      H    H12754    -5.87573    1.50570   62.15631
      H    H12755    -7.23329    1.94087   61.64686
      O    O12756    -4.41476    1.88043   50.78247
      H    H12757    -4.57465    1.59073   51.68065
      H    H12758    -4.58009    1.10445   50.24699
      O    O12759    -4.71215   -0.61081   49.34227
      H    H12760    -5.40563   -0.61308   48.68250
      H    H12761    -3.96986   -1.03488   48.91169
      O    O12762    -5.14715    1.01546   53.41712
      H    H12763    -4.69146    0.23440   53.73098
      H    H12764    -4.80790    1.72614   53.96124
      O    O12765    -6.24262   -8.49439   64.44533
      H    H12766    -5.91728   -9.32802   64.10555
      H    H12767    -5.45459   -7.97154   64.59316
      O    O12768    -5.60382   -8.95262   51.93944
      H    H12769    -6.20293   -8.22904   51.75580
      H    H12770    -5.05586   -9.01494   51.15708
      O    O12771    -6.41182   -7.72569   58.06484
      H    H12772    -7.14371   -7.21701   58.41385
      H    H12773    -6.80939   -8.54270   57.76372
      O    O12774    -2.59637   -4.74660   56.92438
      H    H12775    -1.87646   -4.25107   56.53399
      H    H12776    -2.79819   -5.42481   56.27977
      O    O12777    -7.21449   -4.67569   62.81128
      H    H12778    -7.28076   -5.59612   62.55704
      H    H12779    -7.84398   -4.57815   63.52574
      O    O12780    -4.42054   -8.98084   49.36353
      H    H12781    -3.53258   -8.66911   49.18867
      H    H12782    -4.45003   -9.85361   48.97159
      O    O12783    -8.42448   -2.80847   50.04235
      H    H12784    -8.08291   -2.06424   49.54668
      H    H12785    -9.25321   -2.49535   50.40483
      O    O12786    -7.28282   -1.85363   62.56166
      H    H12787    -7.26837   -2.78554   62.34355
      H    H12788    -7.99031   -1.76766   63.20064
      O    O12789    -2.14911   -7.66965   48.83152
      H    H12790    -2.23274   -7.23823   47.98116
      H    H12791    -1.42969   -7.20982   49.26420
      O    O12792    -1.07170   -5.21290   61.90852
      H    H12793    -1.79688   -4.62002   61.71146
      H    H12794    -0.54415   -5.22055   61.10985
      O    O12795    -1.12039   -0.81543   51.55973
      H    H12796    -1.76277   -1.46986   51.83411
      H    H12797    -1.50732   -0.40992   50.78380
      O    O12798    -5.54174   -3.48688   55.40690
      H    H12799    -5.18936   -4.08407   54.74704
      H    H12800    -6.42551   -3.81246   55.57773
      O    O12801    -7.84943   -0.21188   59.65571
      H    H12802    -7.20521   -0.00594   60.33305
      H    H12803    -7.48649   -0.97304   59.20279
      O    O12804    -6.57622   -2.20864   58.37345
      H    H12805    -5.93400   -2.90933   58.48667
      H    H12806    -6.05129   -1.42880   58.19314
      O    O12807    -2.73065   -1.92378   48.09737
      H    H12808    -2.95689   -2.64074   48.68983
      H    H12809    -3.12103   -2.17254   47.25954
      O    O12810    -4.80246   -1.40915   61.57706
      H    H12811    -4.46684   -0.82248   62.25485
      H    H12812    -5.72243   -1.53988   61.80684
      O    O12813    -3.14902   -4.00659   49.75878
      H    H12814    -3.43685   -3.54532   50.54657
      H    H12815    -2.35381   -4.46681   50.02721
      O    O12816    -7.94622   -0.45115   48.35170
      H    H12817    -7.84503   -0.65475   47.42190
      H    H12818    -8.84605   -0.70532   48.55648
      O    O12819    -8.79804   -8.47344   60.33334
      H    H12820    -8.29952   -7.99886   60.99853
      H    H12821    -8.65575   -9.39709   60.54035
      O    O12822    -3.29916   -7.01333   54.62232
      H    H12823    -4.24014   -6.99831   54.79709
      H    H12824    -2.98475   -7.79973   55.06835
      O    O12825    -1.29660    0.15756   56.29774
      H    H12826    -1.17186    0.98067   56.77013
      H    H12827    -0.43004   -0.05337   55.95016
      O    O12828    -5.98255   -2.45673   65.10556
      H    H12829    -6.58874   -2.43357   64.36513
      H    H12830    -6.28714   -3.18843   65.64228
      O    O12831    -4.55252    1.27130   63.71650
      H    H12832    -3.60034    1.18710   63.66652
      H    H12833    -4.69969    1.93547   64.38988
      O    O12834    -1.66160    0.65072   49.21569
      H    H12835    -1.94745    0.23723   48.40111
      H    H12836    -1.85964    1.57949   49.09574
      O    O12837    -6.95660   -4.29395   48.26045
      H    H12838    -7.50559   -3.84702   48.90472
      H    H12839    -6.33467   -4.79902   48.78422
      O    O12840    -2.90311   -2.93974   64.19267
      H    H12841    -2.16216   -2.60216   63.68942
      H    H12842    -3.66584   -2.77053   63.63965
      O    O12843    -8.77632   -6.31110   47.40469
      H    H12844    -8.25576   -7.02619   47.03880
      H    H12845    -8.12948   -5.67251   47.70474
      O    O12846    -4.22854   -4.88826   62.72820
      H    H12847    -3.81444   -4.73375   63.57724
      H    H12848    -5.16344   -4.76273   62.89077
      O    O12849    -3.75632   -7.54864   64.73211
      H    H12850    -3.17425   -8.30341   64.64416
      H    H12851    -3.58015   -7.01790   63.95526
      O    O12852    -7.13063   -7.20459   62.08157
      H    H12853    -7.01101   -7.80048   62.82106
      H    H12854    -6.27123   -7.16762   61.66170
      O    O12855    -4.79184   -6.65087   60.65782
      H    H12856    -5.31832   -6.12661   60.05434
      H    H12857    -4.44870   -6.01813   61.28880
      O    O12858    -8.76005    2.60421   62.07223
      H    H12859    -8.83418    3.50773   62.37946
      H    H12860    -9.66217    2.28540   62.04443
      O    O12861    -8.21152    1.77007   49.69486
      H    H12862    -7.31644    2.10856   49.71674
      H    H12863    -8.17976    1.04801   49.06729
      O    O12864    -1.23209    0.30043   62.40148
      H    H12865    -1.83189    0.35969   61.65787
      H    H12866    -1.10270   -0.63907   62.53117
      O    O12867     0.00806   -1.95779   47.73845
      H    H12868    -0.82265   -1.89012   48.20918
      H    H12869     0.18524   -1.06737   47.43514
      O    O12870    -0.53630   -5.21304   50.24187
      H    H12871     0.22560   -4.64337   50.34784
      H    H12872    -0.52086   -5.78032   51.01270
      O    O12873     0.46970   -4.35803   55.08607
      H    H12874     0.84058   -5.14130   54.67966
      H    H12875     1.10989   -3.66912   54.90780
      O    O12876    -2.54692   -2.97437   60.49910
      H    H12877    -3.36094   -2.54465   60.76168
      H    H12878    -2.13950   -2.36253   59.88600
      O    O12879    -0.48438   -4.91960   47.39913
      H    H12880    -0.20949   -4.01171   47.27105
      H    H12881    -0.67330   -4.98335   48.33532
      O    O12882    -0.58784   -6.98270   52.39207
      H    H12883    -0.96348   -7.74991   51.96020
      H    H12884    -1.31753   -6.60043   52.87956
      O    O12885    -1.19788   -7.83555   62.02602
      H    H12886    -1.42927   -8.06427   61.12582
      H    H12887    -0.93743   -6.91559   61.98051
      O    O12888    -1.31275   -8.75695   55.69279
      H    H12889    -0.78900   -9.25069   55.06181
      H    H12890    -0.72681   -8.62192   56.43755
      O    O12891    -1.13378   -8.67297   59.21475
      H    H12892    -2.08351   -8.70661   59.32925
      H    H12893    -0.95248   -7.76295   58.97972
      O    O12894    -2.48932    1.77749   54.02593
      H    H12895    -1.89341    1.45595   53.34937
      H    H12896    -2.23150    1.30467   54.81725
      O    O12897     0.37796    1.78468   60.57702
      H    H12898    -0.11621    2.18157   59.85974
      H    H12899    -0.23071    1.15960   60.97075
      O    O12900    -1.93810    2.42702   57.85570
      H    H12901    -2.39780    3.17860   57.48150
      H    H12902    -2.56685    1.70767   57.79718
      O    O12903    -8.76897    1.62669   57.85741
      H    H12904    -8.48119    1.37212   56.98071
      H    H12905    -8.25665    1.07443   58.44797
      O    O12906    -8.70174    2.54830   65.22423
      H    H12907    -7.77501    2.31273   65.26783
      H    H12908    -8.71670    3.37550   64.74283
      O    O12909    -0.46723    2.09086   52.22165
      H    H12910    -0.29201    1.40463   51.57775
      H    H12911    -1.16508    2.61557   51.82932
      O    O12912    -2.13398    1.77529   65.04833
      H    H12913    -1.34145    1.28021   64.84093
      H    H12914    -1.84067    2.45430   65.65589
      O    O12915    12.76633   -7.35262   54.70429
      H    H12916    12.68574   -8.26716   54.43346
      H    H12917    12.35278   -6.85591   53.99826
      O    O12918    10.89814   -5.57471   56.58521
      H    H12919    10.12235   -6.05467   56.87507
      H    H12920    11.54943   -6.25415   56.41083
      O    O12921     4.91472   -5.26273   57.46279
      H    H12922     4.08321   -5.51786   57.86244
      H    H12923     5.52282   -5.19166   58.19858
      O    O12924    14.91888   -1.16870   55.36513
      H    H12925    14.45703   -1.93997   55.69384
      H    H12926    15.73144   -1.14209   55.87037
      O    O12927     4.89485   -1.22872   57.65859
      H    H12928     5.19765   -2.11895   57.47961
      H    H12929     5.63921   -0.67170   57.43082
      O    O12930     1.28722   -7.70198   57.13100
      H    H12931     1.85883   -8.46976   57.13136
      H    H12932     1.28737   -7.40310   56.22166
      O    O12933    11.14521    1.11711   54.98553
      H    H12934    10.52636    1.57286   54.41497
      H    H12935    12.00039    1.27225   54.58450
      O    O12936    10.33904   -2.89900   56.59223
      H    H12937    10.26986   -3.84000   56.43114
      H    H12938    11.10102   -2.80885   57.16449
      O    O12939     7.34083   -8.75076   56.61339
      H    H12940     7.84865   -8.25266   57.25389
      H    H12941     7.87215   -9.52724   56.43732
      O    O12942    12.01155   -3.99897   52.37872
      H    H12943    11.39327   -3.53403   51.81499
      H    H12944    12.52387   -3.30622   52.79567
      O    O12945     6.87472   -4.47138   59.05708
      H    H12946     6.54166   -3.84449   59.69918
      H    H12947     7.05139   -3.94520   58.27724
      O    O12948     6.08663   -2.50330   60.87200
      H    H12949     6.70403   -1.82820   60.59044
      H    H12950     5.22594   -2.09451   60.78075
      O    O12951     1.37987   -3.31332   49.75268
      H    H12952     1.00266   -2.82461   49.02117
      H    H12953     1.63717   -2.64079   50.38333
      O    O12954    17.00439   -1.03936   58.78746
      H    H12955    16.32074   -0.36945   58.77913
      H    H12956    17.54382   -0.84130   58.02195
      O    O12957    14.54027    0.80505   57.50198
      H    H12958    14.55298    0.40128   56.63420
      H    H12959    13.98779    1.57978   57.39812
      O    O12960    15.83481   -2.47333   52.59099
      H    H12961    15.72444   -3.41589   52.71594
      H    H12962    15.83163   -2.11176   53.47727
      O    O12963    13.93881   -4.29197   58.83024
      H    H12964    14.35569   -4.50595   57.99558
      H    H12965    14.66279   -4.03469   59.40110
      O    O12966    11.37684   -6.84680   51.94724
      H    H12967    10.44976   -6.91306   52.17609
      H    H12968    11.52932   -5.90878   51.83277
      O    O12969    17.88502   -5.89324   58.92186
      H    H12970    17.05688   -5.82393   58.44688
      H    H12971    18.48007   -5.30781   58.45345
      O    O12972    15.40656   -5.28477   52.45077
      H    H12973    14.78781   -5.62281   51.80340
      H    H12974    15.38901   -5.92879   53.15869
      O    O12975    14.84922   -9.10631   59.86735
      H    H12976    14.43634   -8.28094   60.12135
      H    H12977    14.11682   -9.69181   59.67499
      O    O12978     6.98250   -6.32032   54.72922
      H    H12979     6.57820   -7.03260   54.23381
      H    H12980     7.06881   -6.66500   55.61802
      O    O12981     7.45067   -2.63357   56.89314
      H    H12982     7.15350   -3.23902   56.21392
      H    H12983     8.40065   -2.59583   56.78207
      O    O12984     5.69536   -9.54600   58.50912
      H    H12985     6.24682   -9.43647   57.73445
      H    H12986     6.20971   -9.17224   59.22464
      O    O12987    15.53923    0.93962   60.55545
      H    H12988    15.06229    1.74684   60.36271
      H    H12989    14.85541    0.28745   60.70807
      O    O12990     6.54251   -2.89540   63.54392
      H    H12991     5.64537   -2.67140   63.79126
      H    H12992     6.56780   -2.77190   62.59506
      O    O12993    13.58303   -6.04608   49.45804
      H    H12994    14.02236   -6.88384   49.31183
      H    H12995    14.29588   -5.41314   49.54446
      O    O12996     5.36963   -6.02406   62.11965
      H    H12997     5.23041   -5.15178   62.48839
      H    H12998     4.48777   -6.36678   61.97445
      O    O12999    11.69257   -1.10648   53.42617
      H    H13000    12.13216   -0.36404   53.01171
      H    H13001    11.63126   -0.86382   54.35006
      O    O13002     7.16767   -0.08189   64.32817
      H    H13003     7.13921    0.32240   63.46101
      H    H13004     7.00417   -1.01086   64.16533
      O    O13005     3.68296   -7.42582   52.22988
      H    H13006     3.56272   -6.69961   51.61801
      H    H13007     3.37305   -8.19553   51.75267
      O    O13008    19.11915    0.70082   65.62459
      H    H13009    19.59512    1.17910   66.30349
      H    H13010    19.73987    0.63256   64.89914
      O    O13011     1.32150   -4.25431   58.03675
      H    H13012     1.39954   -4.11943   57.09232
      H    H13013     1.93567   -4.96272   58.22956
      O    O13014     2.56626   -2.55429   54.44736
      H    H13015     2.15907   -2.41283   53.59272
      H    H13016     3.45756   -2.83827   54.24448
      O    O13017    18.52248   -2.10790   62.78459
      H    H13018    18.64878   -2.34671   61.86631
      H    H13019    18.56461   -2.93945   63.25680
      O    O13020    12.38415    1.59490   61.35407
      H    H13021    12.89862    1.50570   62.15631
      H    H13022    11.54106    1.94087   61.64686
      O    O13023    14.35959    1.88043   50.78247
      H    H13024    14.19970    1.59073   51.68065
      H    H13025    14.19426    1.10445   50.24699
      O    O13026     6.83843    1.66029   52.55963
      H    H13027     6.66268    0.74384   52.34641
      H    H13028     5.98400    2.01902   52.79941
      O    O13029    14.06220   -0.61081   49.34227
      H    H13030    13.36872   -0.61308   48.68250
      H    H13031    14.80449   -1.03488   48.91169
      O    O13032    13.62720    1.01546   53.41712
      H    H13033    14.08289    0.23440   53.73098
      H    H13034    13.96645    1.72614   53.96124
      O    O13035     1.37745   -3.21289   60.57619
      H    H13036     1.54056   -3.68236   59.75813
      H    H13037     1.84270   -3.72054   61.24108
      O    O13038    12.53173   -8.49439   64.44533
      H    H13039    12.85707   -9.32802   64.10555
      H    H13040    13.31976   -7.97154   64.59316
      O    O13041     5.94075   -8.95896   53.34037
      H    H13042     5.71484   -9.17524   54.24504
      H    H13043     5.16000   -8.52611   52.99497
      O    O13044    13.17053   -8.95262   51.93944
      H    H13045    12.57142   -8.22904   51.75580
      H    H13046    13.71849   -9.01494   51.15708
      O    O13047     8.38067   -8.06040   64.00640
      H    H13048     8.28503   -9.00093   63.85644
      H    H13049     9.22387   -7.83889   63.61121
      O    O13050    12.36253   -7.72569   58.06484
      H    H13051    11.63064   -7.21701   58.41385
      H    H13052    11.96496   -8.54270   57.76372
      O    O13053     7.87443   -7.73895   48.85910
      H    H13054     7.30612   -8.18713   48.23269
      H    H13055     8.58333   -7.37967   48.32561
      O    O13056     2.95135   -3.83775   62.73577
      H    H13057     2.56683   -4.47838   63.33407
      H    H13058     3.26257   -3.13414   63.30525
      O    O13059     9.10106   -6.99010   58.21663
      H    H13060     9.46808   -7.46424   58.96277
      H    H13061     8.91157   -6.11594   58.55747
      O    O13062     6.89100   -7.94923   60.53506
      H    H13063     6.58671   -7.07003   60.76009
      H    H13064     7.84565   -7.88925   60.57080
      O    O13065     5.41918   -3.74313   51.13174
      H    H13066     4.64541   -4.28337   50.97161
      H    H13067     6.14864   -4.26247   50.79352
      O    O13068    16.17798   -4.74660   56.92438
      H    H13069    16.89789   -4.25107   56.53399
      H    H13070    15.97616   -5.42481   56.27977
      O    O13071    11.55986   -4.67569   62.81128
      H    H13072    11.49359   -5.59612   62.55704
      H    H13073    10.93037   -4.57815   63.52574
      O    O13074    14.35381   -8.98084   49.36353
      H    H13075    15.24177   -8.66911   49.18867
      H    H13076    14.32432   -9.85361   48.97159
      O    O13077     5.46292   -4.07509   54.76962
      H    H13078     5.98079   -4.87827   54.71531
      H    H13079     5.01132   -4.13718   55.61130
      O    O13080    10.34987   -2.80847   50.04235
      H    H13081    10.69144   -2.06424   49.54668
      H    H13082     9.52114   -2.49535   50.40483
      O    O13083     2.94737   -7.10896   61.68219
      H    H13084     2.58887   -6.44357   62.26953
      H    H13085     2.65283   -7.94060   62.05345
      O    O13086     6.14869   -6.65053   64.56615
      H    H13087     5.84870   -6.50482   63.66893
      H    H13088     6.91981   -7.21000   64.47349
      O    O13089    11.49153   -1.85363   62.56166
      H    H13090    11.50598   -2.78554   62.34355
      H    H13091    10.78404   -1.76766   63.20064
      O    O13092    16.62524   -7.66965   48.83152
      H    H13093    16.54161   -7.23823   47.98116
      H    H13094    17.34466   -7.20982   49.26420
      O    O13095    17.70265   -5.21290   61.90852
      H    H13096    16.97747   -4.62002   61.71146
      H    H13097    18.23020   -5.22055   61.10985
      O    O13098    17.65396   -0.81543   51.55973
      H    H13099    17.01158   -1.46986   51.83411
      H    H13100    17.26703   -0.40992   50.78380
      O    O13101    13.23261   -3.48688   55.40690
      H    H13102    13.58499   -4.08407   54.74704
      H    H13103    12.34884   -3.81246   55.57773
      O    O13104     9.31894   -2.72711   52.81394
      H    H13105    10.00605   -2.18019   53.19470
      H    H13106     8.53218   -2.18304   52.84890
      O    O13107     1.45818   -7.10983   48.30565
      H    H13108     2.32766   -6.82735   48.58924
      H    H13109     0.96721   -6.29624   48.19053
      O    O13110     8.62166   -5.72251   52.42648
      H    H13111     9.07794   -4.91199   52.65250
      H    H13112     8.27048   -6.04020   53.25833
      O    O13113    10.92492   -0.21188   59.65571
      H    H13114    11.56914   -0.00594   60.33305
      H    H13115    11.28786   -0.97304   59.20279
      O    O13116    12.19813   -2.20864   58.37345
      H    H13117    12.84035   -2.90933   58.48667
      H    H13118    12.72306   -1.42880   58.19314
      O    O13119    16.04370   -1.92378   48.09737
      H    H13120    15.81746   -2.64074   48.68983
      H    H13121    15.65332   -2.17254   47.25954
      O    O13122    13.97189   -1.40915   61.57706
      H    H13123    14.30751   -0.82248   62.25485
      H    H13124    13.05192   -1.53988   61.80684
      O    O13125     1.82530    2.10291   48.87181
      H    H13126     2.18507    2.70184   48.21754
      H    H13127     1.68454    2.64890   49.64532
      O    O13128    15.62533   -4.00659   49.75878
      H    H13129    15.33750   -3.54532   50.54657
      H    H13130    16.42054   -4.46681   50.02721
      O    O13131     1.80949    0.36839   63.34605
      H    H13132     1.91860   -0.57213   63.20559
      H    H13133     1.15755    0.63387   62.69743
      O    O13134     9.80075   -1.36002   64.74587
      H    H13135     9.48044   -2.07909   65.29044
      H    H13136     9.12658   -0.68451   64.81947
      O    O13137     7.84217   -0.51397   49.68918
      H    H13138     7.83318    0.21900   49.07363
      H    H13139     6.92200   -0.76082   49.78188
      O    O13140     3.44283   -5.29248   50.43386
      H    H13141     2.83562   -4.55259   50.44339
      H    H13142     3.91776   -5.20255   49.60768
      O    O13143    10.82813   -0.45115   48.35170
      H    H13144    10.92932   -0.65475   47.42190
      H    H13145     9.92830   -0.70532   48.55648
      O    O13146     9.97631   -8.47344   60.33334
      H    H13147    10.47483   -7.99886   60.99853
      H    H13148    10.11860   -9.39709   60.54035
      O    O13149     9.46994    2.06748   53.04647
      H    H13150     9.72409    2.02962   52.12440
      H    H13151     8.52118    1.94082   53.03929
      O    O13152    15.47519   -7.01333   54.62232
      H    H13153    14.53421   -6.99831   54.79709
      H    H13154    15.78960   -7.79973   55.06835
      O    O13155     5.45336   -5.33137   48.18271
      H    H13156     6.21969   -5.44323   48.74526
      H    H13157     5.53083   -6.02757   47.53039
      O    O13158     4.14803   -7.89886   48.86600
      H    H13159     4.22839   -8.84611   48.97774
      H    H13160     5.04001   -7.56817   48.97207
      O    O13161    17.47775    0.15756   56.29774
      H    H13162    17.60249    0.98067   56.77013
      H    H13163    18.34431   -0.05337   55.95016
      O    O13164     4.94951    2.25068   55.96946
      H    H13165     5.68575    1.70222   56.24031
      H    H13166     5.33360    3.11628   55.83006
      O    O13167     1.83405   -1.68197   51.84361
      H    H13168     0.90803   -1.43985   51.83415
      H    H13169     2.29970   -0.85454   51.72208
      O    O13170     3.95533    1.43528   65.15802
      H    H13171     4.75661    1.75649   65.57156
      H    H13172     3.44052    1.07484   65.88001
      O    O13173     8.05974    1.42371   47.79201
      H    H13174     8.85260    1.71259   47.34019
      H    H13175     7.54017    0.99292   47.11326
      O    O13176    12.79180   -2.45673   65.10556
      H    H13177    12.18561   -2.43357   64.36513
      H    H13178    12.48721   -3.18843   65.64228
      O    O13179    14.22183    1.27130   63.71650
      H    H13180    15.17401    1.18710   63.66652
      H    H13181    14.07466    1.93547   64.38988
      O    O13182    17.11275    0.65072   49.21569
      H    H13183    16.82690    0.23723   48.40111
      H    H13184    16.91471    1.57949   49.09574
      O    O13185     1.67511   -6.07737   64.10162
      H    H13186     2.17902   -6.65664   64.67324
      H    H13187     0.93586   -5.79335   64.63926
      O    O13188     8.57748   -3.35595   47.65625
      H    H13189     8.47254   -3.97072   48.38239
      H    H13190     8.40990   -3.87936   46.87255
      O    O13191     8.72891   -4.67027   63.63517
      H    H13192     7.96348   -4.10177   63.55064
      H    H13193     8.91050   -4.96265   62.74200
      O    O13194    11.81775   -4.29395   48.26045
      H    H13195    11.26876   -3.84702   48.90472
      H    H13196    12.43968   -4.79902   48.78422
      O    O13197    15.87124   -2.93974   64.19267
      H    H13198    16.61219   -2.60216   63.68942
      H    H13199    15.10851   -2.77053   63.63965
      O    O13200     3.70742   -7.93441   64.99663
      H    H13201     3.74796   -8.23302   65.90515
      H    H13202     4.56197   -7.53365   64.83738
      O    O13203     7.48526   -5.33486   50.15698
      H    H13204     7.90690   -5.50087   51.00012
      H    H13205     7.61035   -6.14483   49.66249
      O    O13206     5.64800   -9.35520   62.96408
      H    H13207     5.11765   -9.84611   62.33641
      H    H13208     6.31681   -8.92678   62.42987
      O    O13209     9.99803   -6.31110   47.40469
      H    H13210    10.51859   -7.02619   47.03880
      H    H13211    10.64487   -5.67251   47.70474
      O    O13212    14.54581   -4.88826   62.72820
      H    H13213    14.95991   -4.73375   63.57724
      H    H13214    13.61091   -4.76273   62.89077
      O    O13215    15.01803   -7.54864   64.73211
      H    H13216    15.60010   -8.30341   64.64416
      H    H13217    15.19420   -7.01790   63.95526
      O    O13218     9.30733   -4.93621   60.69779
      H    H13219     9.72614   -4.09293   60.52541
      H    H13220     8.38820   -4.79900   60.46847
      O    O13221    11.64372   -7.20459   62.08157
      H    H13222    11.76334   -7.80048   62.82106
      H    H13223    12.50312   -7.16762   61.66170
      O    O13224    13.98251   -6.65087   60.65782
      H    H13225    13.45603   -6.12661   60.05434
      H    H13226    14.32565   -6.01813   61.28880
      O    O13227     7.15807    1.36909   61.81356
      H    H13228     6.62018    2.09370   61.49443
      H    H13229     7.41147    0.89213   61.02330
      O    O13230    10.01430    2.60421   62.07223
      H    H13231     9.94017    3.50773   62.37946
      H    H13232     9.11218    2.28540   62.04443
      O    O13233    10.56283    1.77007   49.69486
      H    H13234    11.45791    2.10856   49.71674
      H    H13235    10.59459    1.04801   49.06729
      O    O13236     4.20244   -2.85723   47.92356
      H    H13237     4.63993   -2.31426   48.57932
      H    H13238     4.68722   -3.68253   47.93320
      O    O13239     1.41702   -0.06833   55.37559
      H    H13240     1.74733   -0.93622   55.14345
      H    H13241     1.84612    0.13753   56.20608
      O    O13242     6.01322   -1.73743   53.03579
      H    H13243     5.71277   -1.86093   53.93618
      H    H13244     5.90697   -2.59657   52.62736
      O    O13245     1.90605    0.79873   58.11375
      H    H13246     1.46914    0.97881   58.94617
      H    H13247     2.47381    1.55619   57.97192
      O    O13248    17.54226    0.30043   62.40148
      H    H13249    16.94246    0.35969   61.65787
      H    H13250    17.67165   -0.63907   62.53117
      O    O13251    18.78241   -1.95779   47.73845
      H    H13252    17.95170   -1.89012   48.20918
      H    H13253    18.95959   -1.06737   47.43514
      O    O13254    18.23805   -5.21304   50.24187
      H    H13255    18.99995   -4.64337   50.34784
      H    H13256    18.25349   -5.78032   51.01270
      O    O13257     1.73849   -6.68924   54.47264
      H    H13258     1.08337   -6.95808   53.82861
      H    H13259     2.57628   -6.79880   54.02284
      O    O13260    19.24405   -4.35803   55.08607
      H    H13261    19.61493   -5.14130   54.67966
      H    H13262    19.88424   -3.66912   54.90780
      O    O13263    16.22743   -2.97437   60.49910
      H    H13264    15.41341   -2.54465   60.76168
      H    H13265    16.63485   -2.36253   59.88600
      O    O13266    18.28997   -4.91960   47.39913
      H    H13267    18.56486   -4.01171   47.27105
      H    H13268    18.10105   -4.98335   48.33532
      O    O13269    18.18651   -6.98270   52.39207
      H    H13270    17.81087   -7.74991   51.96020
      H    H13271    17.45682   -6.60043   52.87956
      O    O13272     2.77608   -6.30399   59.01297
      H    H13273     3.14339   -6.39125   59.89258
      H    H13274     2.20716   -7.06733   58.91366
      O    O13275    17.57647   -7.83555   62.02602
      H    H13276    17.34508   -8.06427   61.12582
      H    H13277    17.83692   -6.91559   61.98051
      O    O13278     2.32768   -9.39308   62.91882
      H    H13279     1.43329   -9.42640   63.25819
      H    H13280     2.86744   -9.19440   63.68394
      O    O13281     0.95230   -9.47935   50.41517
      H    H13282     0.04870   -9.21633   50.24034
      H    H13283     1.43636   -9.20823   49.63517
      O    O13284    17.46160   -8.75695   55.69279
      H    H13285    17.98535   -9.25069   55.06181
      H    H13286    18.04754   -8.62192   56.43755
      O    O13287    17.64057   -8.67297   59.21475
      H    H13288    16.69084   -8.70661   59.32925
      H    H13289    17.82187   -7.76295   58.97972
      O    O13290    16.28503    1.77749   54.02593
      H    H13291    16.88094    1.45595   53.34937
      H    H13292    16.54285    1.30467   54.81725
      O    O13293     4.19129   -1.79072   64.17499
      H    H13294     4.14825   -2.16143   65.05643
      H    H13295     4.32239   -0.85296   64.31517
      O    O13296     7.89189   -0.23476   59.77596
      H    H13297     7.65103    0.03270   58.88901
      H    H13298     8.83216   -0.06419   59.83105
      O    O13299    19.15231    1.78468   60.57702
      H    H13300    18.65814    2.18157   59.85974
      H    H13301    18.54364    1.15960   60.97075
      O    O13302     4.03009    1.15551   61.29477
      H    H13303     3.43612    1.02398   62.03377
      H    H13304     4.02248    0.31932   60.82898
      O    O13305    16.83625    2.42702   57.85570
      H    H13306    16.37655    3.17860   57.48150
      H    H13307    16.20750    1.70767   57.79718
      O    O13308     3.66132   -1.47866   60.24557
      H    H13309     2.93472   -2.09813   60.17817
      H    H13310     3.72223   -1.08459   59.37538
      O    O13311     7.26583    0.73584   57.03051
      H    H13312     7.78233    0.12458   56.50534
      H    H13313     7.91556    1.23872   57.52161
      O    O13314    10.00538    1.62669   57.85741
      H    H13315    10.29316    1.37212   56.98071
      H    H13316    10.51770    1.07443   58.44797
      O    O13317     1.94432    1.83878   53.45525
      H    H13318     1.77652    1.20585   54.15344
      H    H13319     1.07777    2.04472   53.10467
      O    O13320     3.55059    0.53211   50.90026
      H    H13321     3.02535    0.91291   50.19646
      H    H13322     3.47504    1.15718   51.62123
      O    O13323    10.07261    2.54830   65.22423
      H    H13324    10.99934    2.31273   65.26783
      H    H13325    10.05765    3.37550   64.74283
      O    O13326    18.30712    2.09086   52.22165
      H    H13327    18.48234    1.40463   51.57775
      H    H13328    17.60927    2.61557   51.82932
      O    O13329     6.14988    2.48034   49.77519
      H    H13330     6.88176    2.19627   49.22757
      H    H13331     6.40925    2.24167   50.66512
      O    O13332     5.31136   -1.40318   49.77982
      H    H13333     4.68225   -0.93467   50.32840
      H    H13334     5.42614   -2.24826   50.21444
      O    O13335    16.64037    1.77529   65.04833
      H    H13336    17.43290    1.28021   64.84093
      H    H13337    16.93368    2.45430   65.65589
      O    O13338    31.54068   -7.35262   54.70429
      H    H13339    31.46009   -8.26716   54.43346
      H    H13340    31.12713   -6.85591   53.99826
      O    O13341    29.67249   -5.57471   56.58521
      H    H13342    28.89670   -6.05467   56.87507
      H    H13343    30.32378   -6.25415   56.41083
      O    O13344    23.68907   -5.26273   57.46279
      H    H13345    22.85756   -5.51786   57.86244
      H    H13346    24.29717   -5.19166   58.19858
      O    O13347    33.69323   -1.16870   55.36513
      H    H13348    33.23138   -1.93997   55.69384
      H    H13349    34.50579   -1.14209   55.87037
      O    O13350    23.66920   -1.22872   57.65859
      H    H13351    23.97200   -2.11895   57.47961
      H    H13352    24.41356   -0.67170   57.43082
      O    O13353    20.06157   -7.70198   57.13100
      H    H13354    20.63318   -8.46976   57.13136
      H    H13355    20.06172   -7.40310   56.22166
      O    O13356    29.91956    1.11711   54.98553
      H    H13357    29.30071    1.57286   54.41497
      H    H13358    30.77474    1.27225   54.58450
      O    O13359    29.11339   -2.89900   56.59223
      H    H13360    29.04421   -3.84000   56.43114
      H    H13361    29.87537   -2.80885   57.16449
      O    O13362    26.11518   -8.75076   56.61339
      H    H13363    26.62300   -8.25266   57.25389
      H    H13364    26.64650   -9.52724   56.43732
      O    O13365    30.78590   -3.99897   52.37872
      H    H13366    30.16762   -3.53403   51.81499
      H    H13367    31.29822   -3.30622   52.79567
      O    O13368    25.64907   -4.47138   59.05708
      H    H13369    25.31601   -3.84449   59.69918
      H    H13370    25.82574   -3.94520   58.27724
      O    O13371    24.86098   -2.50330   60.87200
      H    H13372    25.47838   -1.82820   60.59044
      H    H13373    24.00029   -2.09451   60.78075
      O    O13374    20.15422   -3.31332   49.75268
      H    H13375    19.77701   -2.82461   49.02117
      H    H13376    20.41152   -2.64079   50.38333
      O    O13377    35.77874   -1.03936   58.78746
      H    H13378    35.09509   -0.36945   58.77913
      H    H13379    36.31817   -0.84130   58.02195
      O    O13380    33.31462    0.80505   57.50198
      H    H13381    33.32733    0.40128   56.63420
      H    H13382    32.76214    1.57978   57.39812
      O    O13383    34.60916   -2.47333   52.59099
      H    H13384    34.49879   -3.41589   52.71594
      H    H13385    34.60598   -2.11176   53.47727
      O    O13386    32.71316   -4.29197   58.83024
      H    H13387    33.13004   -4.50595   57.99558
      H    H13388    33.43714   -4.03469   59.40110
      O    O13389    30.15119   -6.84680   51.94724
      H    H13390    29.22411   -6.91306   52.17609
      H    H13391    30.30367   -5.90878   51.83277
      O    O13392    36.65937   -5.89324   58.92186
      H    H13393    35.83123   -5.82393   58.44688
      H    H13394    37.25442   -5.30781   58.45345
      O    O13395    34.18091   -5.28477   52.45077
      H    H13396    33.56216   -5.62281   51.80340
      H    H13397    34.16336   -5.92879   53.15869
      O    O13398    33.62357   -9.10631   59.86735
      H    H13399    33.21069   -8.28094   60.12135
      H    H13400    32.89117   -9.69181   59.67499
      O    O13401    25.75685   -6.32032   54.72922
      H    H13402    25.35255   -7.03260   54.23381
      H    H13403    25.84316   -6.66500   55.61802
      O    O13404    26.22502   -2.63357   56.89314
      H    H13405    25.92785   -3.23902   56.21392
      H    H13406    27.17500   -2.59583   56.78207
      O    O13407    24.46971   -9.54600   58.50912
      H    H13408    25.02117   -9.43647   57.73445
      H    H13409    24.98406   -9.17224   59.22464
      O    O13410    34.31358    0.93962   60.55545
      H    H13411    33.83664    1.74684   60.36271
      H    H13412    33.62976    0.28745   60.70807
      O    O13413    25.31686   -2.89540   63.54392
      H    H13414    24.41972   -2.67140   63.79126
      H    H13415    25.34215   -2.77190   62.59506
      O    O13416    32.35738   -6.04608   49.45804
      H    H13417    32.79671   -6.88384   49.31183
      H    H13418    33.07023   -5.41314   49.54446
      O    O13419    24.14398   -6.02406   62.11965
      H    H13420    24.00476   -5.15178   62.48839
      H    H13421    23.26212   -6.36678   61.97445
      O    O13422    30.46692   -1.10648   53.42617
      H    H13423    30.90651   -0.36404   53.01171
      H    H13424    30.40561   -0.86382   54.35006
      O    O13425    25.94202   -0.08189   64.32817
      H    H13426    25.91356    0.32240   63.46101
      H    H13427    25.77852   -1.01086   64.16533
      O    O13428    22.45731   -7.42582   52.22988
      H    H13429    22.33707   -6.69961   51.61801
      H    H13430    22.14740   -8.19553   51.75267
      O    O13431    37.89350    0.70082   65.62459
      H    H13432    38.36947    1.17910   66.30349
      H    H13433    38.51422    0.63256   64.89914
      O    O13434    20.09585   -4.25431   58.03675
      H    H13435    20.17389   -4.11943   57.09232
      H    H13436    20.71002   -4.96272   58.22956
      O    O13437    21.34061   -2.55429   54.44736
      H    H13438    20.93342   -2.41283   53.59272
      H    H13439    22.23191   -2.83827   54.24448
      O    O13440    37.29683   -2.10790   62.78459
      H    H13441    37.42313   -2.34671   61.86631
      H    H13442    37.33896   -2.93945   63.25680
      O    O13443    31.15850    1.59490   61.35407
      H    H13444    31.67297    1.50570   62.15631
      H    H13445    30.31541    1.94087   61.64686
      O    O13446    33.13394    1.88043   50.78247
      H    H13447    32.97405    1.59073   51.68065
      H    H13448    32.96861    1.10445   50.24699
      O    O13449    25.61278    1.66029   52.55963
      H    H13450    25.43703    0.74384   52.34641
      H    H13451    24.75835    2.01902   52.79941
      O    O13452    32.83655   -0.61081   49.34227
      H    H13453    32.14307   -0.61308   48.68250
      H    H13454    33.57884   -1.03488   48.91169
      O    O13455    32.40155    1.01546   53.41712
      H    H13456    32.85724    0.23440   53.73098
      H    H13457    32.74080    1.72614   53.96124
      O    O13458    20.15180   -3.21289   60.57619
      H    H13459    20.31491   -3.68236   59.75813
      H    H13460    20.61705   -3.72054   61.24108
      O    O13461    31.30608   -8.49439   64.44533
      H    H13462    31.63142   -9.32802   64.10555
      H    H13463    32.09411   -7.97154   64.59316
      O    O13464    24.71510   -8.95896   53.34037
      H    H13465    24.48919   -9.17524   54.24504
      H    H13466    23.93435   -8.52611   52.99497
      O    O13467    31.94488   -8.95262   51.93944
      H    H13468    31.34577   -8.22904   51.75580
      H    H13469    32.49284   -9.01494   51.15708
      O    O13470    27.15502   -8.06040   64.00640
      H    H13471    27.05938   -9.00093   63.85644
      H    H13472    27.99822   -7.83889   63.61121
      O    O13473    31.13688   -7.72569   58.06484
      H    H13474    30.40499   -7.21701   58.41385
      H    H13475    30.73931   -8.54270   57.76372
      O    O13476    26.64878   -7.73895   48.85910
      H    H13477    26.08047   -8.18713   48.23269
      H    H13478    27.35768   -7.37967   48.32561
      O    O13479    21.72570   -3.83775   62.73577
      H    H13480    21.34118   -4.47838   63.33407
      H    H13481    22.03692   -3.13414   63.30525
      O    O13482    27.87541   -6.99010   58.21663
      H    H13483    28.24243   -7.46424   58.96277
      H    H13484    27.68592   -6.11594   58.55747
      O    O13485    25.66535   -7.94923   60.53506
      H    H13486    25.36106   -7.07003   60.76009
      H    H13487    26.62000   -7.88925   60.57080
      O    O13488    24.19353   -3.74313   51.13174
      H    H13489    23.41976   -4.28337   50.97161
      H    H13490    24.92299   -4.26247   50.79352
      O    O13491    34.95233   -4.74660   56.92438
      H    H13492    35.67224   -4.25107   56.53399
      H    H13493    34.75051   -5.42481   56.27977
      O    O13494    30.33421   -4.67569   62.81128
      H    H13495    30.26794   -5.59612   62.55704
      H    H13496    29.70472   -4.57815   63.52574
      O    O13497    33.12816   -8.98084   49.36353
      H    H13498    34.01612   -8.66911   49.18867
      H    H13499    33.09867   -9.85361   48.97159
      O    O13500    24.23727   -4.07509   54.76962
      H    H13501    24.75514   -4.87827   54.71531
      H    H13502    23.78567   -4.13718   55.61130
      O    O13503    29.12422   -2.80847   50.04235
      H    H13504    29.46579   -2.06424   49.54668
      H    H13505    28.29549   -2.49535   50.40483
      O    O13506    21.72172   -7.10896   61.68219
      H    H13507    21.36322   -6.44357   62.26953
      H    H13508    21.42718   -7.94060   62.05345
      O    O13509    24.92304   -6.65053   64.56615
      H    H13510    24.62305   -6.50482   63.66893
      H    H13511    25.69416   -7.21000   64.47349
      O    O13512    30.26588   -1.85363   62.56166
      H    H13513    30.28033   -2.78554   62.34355
      H    H13514    29.55839   -1.76766   63.20064
      O    O13515    35.39959   -7.66965   48.83152
      H    H13516    35.31596   -7.23823   47.98116
      H    H13517    36.11901   -7.20982   49.26420
      O    O13518    36.47700   -5.21290   61.90852
      H    H13519    35.75182   -4.62002   61.71146
      H    H13520    37.00455   -5.22055   61.10985
      O    O13521    36.42831   -0.81543   51.55973
      H    H13522    35.78593   -1.46986   51.83411
      H    H13523    36.04138   -0.40992   50.78380
      O    O13524    32.00696   -3.48688   55.40690
      H    H13525    32.35934   -4.08407   54.74704
      H    H13526    31.12319   -3.81246   55.57773
      O    O13527    28.09329   -2.72711   52.81394
      H    H13528    28.78040   -2.18019   53.19470
      H    H13529    27.30653   -2.18304   52.84890
      O    O13530    20.23253   -7.10983   48.30565
      H    H13531    21.10201   -6.82735   48.58924
      H    H13532    19.74156   -6.29624   48.19053
      O    O13533    27.39601   -5.72251   52.42648
      H    H13534    27.85229   -4.91199   52.65250
      H    H13535    27.04483   -6.04020   53.25833
      O    O13536    29.69927   -0.21188   59.65571
      H    H13537    30.34349   -0.00594   60.33305
      H    H13538    30.06221   -0.97304   59.20279
      O    O13539    30.97248   -2.20864   58.37345
      H    H13540    31.61470   -2.90933   58.48667
      H    H13541    31.49741   -1.42880   58.19314
      O    O13542    34.81805   -1.92378   48.09737
      H    H13543    34.59181   -2.64074   48.68983
      H    H13544    34.42767   -2.17254   47.25954
      O    O13545    32.74624   -1.40915   61.57706
      H    H13546    33.08186   -0.82248   62.25485
      H    H13547    31.82627   -1.53988   61.80684
      O    O13548    20.59965    2.10291   48.87181
      H    H13549    20.95942    2.70184   48.21754
      H    H13550    20.45889    2.64890   49.64532
      O    O13551    34.39968   -4.00659   49.75878
      H    H13552    34.11185   -3.54532   50.54657
      H    H13553    35.19489   -4.46681   50.02721
      O    O13554    20.58384    0.36839   63.34605
      H    H13555    20.69295   -0.57213   63.20559
      H    H13556    19.93190    0.63387   62.69743
      O    O13557    28.57510   -1.36002   64.74587
      H    H13558    28.25479   -2.07909   65.29044
      H    H13559    27.90093   -0.68451   64.81947
      O    O13560    26.61652   -0.51397   49.68918
      H    H13561    26.60753    0.21900   49.07363
      H    H13562    25.69635   -0.76082   49.78188
      O    O13563    22.21718   -5.29248   50.43386
      H    H13564    21.60997   -4.55259   50.44339
      H    H13565    22.69211   -5.20255   49.60768
      O    O13566    29.60248   -0.45115   48.35170
      H    H13567    29.70367   -0.65475   47.42190
      H    H13568    28.70265   -0.70532   48.55648
      O    O13569    28.75066   -8.47344   60.33334
      H    H13570    29.24918   -7.99886   60.99853
      H    H13571    28.89295   -9.39709   60.54035
      O    O13572    28.24429    2.06748   53.04647
      H    H13573    28.49844    2.02962   52.12440
      H    H13574    27.29553    1.94082   53.03929
      O    O13575    34.24954   -7.01333   54.62232
      H    H13576    33.30856   -6.99831   54.79709
      H    H13577    34.56395   -7.79973   55.06835
      O    O13578    24.22771   -5.33137   48.18271
      H    H13579    24.99404   -5.44323   48.74526
      H    H13580    24.30518   -6.02757   47.53039
      O    O13581    22.92238   -7.89886   48.86600
      H    H13582    23.00274   -8.84611   48.97774
      H    H13583    23.81436   -7.56817   48.97207
      O    O13584    36.25210    0.15756   56.29774
      H    H13585    36.37684    0.98067   56.77013
      H    H13586    37.11866   -0.05337   55.95016
      O    O13587    23.72386    2.25068   55.96946
      H    H13588    24.46010    1.70222   56.24031
      H    H13589    24.10795    3.11628   55.83006
      O    O13590    20.60840   -1.68197   51.84361
      H    H13591    19.68238   -1.43985   51.83415
      H    H13592    21.07405   -0.85454   51.72208
      O    O13593    22.72968    1.43528   65.15802
      H    H13594    23.53096    1.75649   65.57156
      H    H13595    22.21487    1.07484   65.88001
      O    O13596    26.83409    1.42371   47.79201
      H    H13597    27.62695    1.71259   47.34019
      H    H13598    26.31452    0.99292   47.11326
      O    O13599    31.56615   -2.45673   65.10556
      H    H13600    30.95996   -2.43357   64.36513
      H    H13601    31.26156   -3.18843   65.64228
      O    O13602    32.99618    1.27130   63.71650
      H    H13603    33.94836    1.18710   63.66652
      H    H13604    32.84901    1.93547   64.38988
      O    O13605    35.88710    0.65072   49.21569
      H    H13606    35.60125    0.23723   48.40111
      H    H13607    35.68906    1.57949   49.09574
      O    O13608    20.44946   -6.07737   64.10162
      H    H13609    20.95337   -6.65664   64.67324
      H    H13610    19.71021   -5.79335   64.63926
      O    O13611    27.35183   -3.35595   47.65625
      H    H13612    27.24689   -3.97072   48.38239
      H    H13613    27.18425   -3.87936   46.87255
      O    O13614    27.50326   -4.67027   63.63517
      H    H13615    26.73783   -4.10177   63.55064
      H    H13616    27.68485   -4.96265   62.74200
      O    O13617    30.59210   -4.29395   48.26045
      H    H13618    30.04311   -3.84702   48.90472
      H    H13619    31.21403   -4.79902   48.78422
      O    O13620    34.64559   -2.93974   64.19267
      H    H13621    35.38654   -2.60216   63.68942
      H    H13622    33.88286   -2.77053   63.63965
      O    O13623    22.48177   -7.93441   64.99663
      H    H13624    22.52231   -8.23302   65.90515
      H    H13625    23.33632   -7.53365   64.83738
      O    O13626    26.25961   -5.33486   50.15698
      H    H13627    26.68125   -5.50087   51.00012
      H    H13628    26.38470   -6.14483   49.66249
      O    O13629    24.42235   -9.35520   62.96408
      H    H13630    23.89200   -9.84611   62.33641
      H    H13631    25.09116   -8.92678   62.42987
      O    O13632    28.77238   -6.31110   47.40469
      H    H13633    29.29294   -7.02619   47.03880
      H    H13634    29.41922   -5.67251   47.70474
      O    O13635    33.32016   -4.88826   62.72820
      H    H13636    33.73426   -4.73375   63.57724
      H    H13637    32.38526   -4.76273   62.89077
      O    O13638    33.79238   -7.54864   64.73211
      H    H13639    34.37445   -8.30341   64.64416
      H    H13640    33.96855   -7.01790   63.95526
      O    O13641    28.08168   -4.93621   60.69779
      H    H13642    28.50049   -4.09293   60.52541
      H    H13643    27.16255   -4.79900   60.46847
      O    O13644    30.41807   -7.20459   62.08157
      H    H13645    30.53769   -7.80048   62.82106
      H    H13646    31.27747   -7.16762   61.66170
      O    O13647    32.75686   -6.65087   60.65782
      H    H13648    32.23038   -6.12661   60.05434
      H    H13649    33.10000   -6.01813   61.28880
      O    O13650    25.93242    1.36909   61.81356
      H    H13651    25.39453    2.09370   61.49443
      H    H13652    26.18582    0.89213   61.02330
      O    O13653    28.78865    2.60421   62.07223
      H    H13654    28.71452    3.50773   62.37946
      H    H13655    27.88653    2.28540   62.04443
      O    O13656    29.33718    1.77007   49.69486
      H    H13657    30.23226    2.10856   49.71674
      H    H13658    29.36894    1.04801   49.06729
      O    O13659    22.97679   -2.85723   47.92356
      H    H13660    23.41428   -2.31426   48.57932
      H    H13661    23.46157   -3.68253   47.93320
      O    O13662    20.19137   -0.06833   55.37559
      H    H13663    20.52168   -0.93622   55.14345
      H    H13664    20.62047    0.13753   56.20608
      O    O13665    24.78757   -1.73743   53.03579
      H    H13666    24.48712   -1.86093   53.93618
      H    H13667    24.68132   -2.59657   52.62736
      O    O13668    20.68040    0.79873   58.11375
      H    H13669    20.24349    0.97881   58.94617
      H    H13670    21.24816    1.55619   57.97192
      O    O13671    36.31661    0.30043   62.40148
      H    H13672    35.71681    0.35969   61.65787
      H    H13673    36.44600   -0.63907   62.53117
      O    O13674    37.55676   -1.95779   47.73845
      H    H13675    36.72605   -1.89012   48.20918
      H    H13676    37.73394   -1.06737   47.43514
      O    O13677    37.01240   -5.21304   50.24187
      H    H13678    37.77430   -4.64337   50.34784
      H    H13679    37.02784   -5.78032   51.01270
      O    O13680    20.51284   -6.68924   54.47264
      H    H13681    19.85772   -6.95808   53.82861
      H    H13682    21.35063   -6.79880   54.02284
      O    O13683    38.01840   -4.35803   55.08607
      H    H13684    38.38928   -5.14130   54.67966
      H    H13685    38.65859   -3.66912   54.90780
      O    O13686    35.00178   -2.97437   60.49910
      H    H13687    34.18776   -2.54465   60.76168
      H    H13688    35.40920   -2.36253   59.88600
      O    O13689    37.06432   -4.91960   47.39913
      H    H13690    37.33921   -4.01171   47.27105
      H    H13691    36.87540   -4.98335   48.33532
      O    O13692    36.96086   -6.98270   52.39207
      H    H13693    36.58522   -7.74991   51.96020
      H    H13694    36.23117   -6.60043   52.87956
      O    O13695    21.55043   -6.30399   59.01297
      H    H13696    21.91774   -6.39125   59.89258
      H    H13697    20.98151   -7.06733   58.91366
      O    O13698    36.35082   -7.83555   62.02602
      H    H13699    36.11943   -8.06427   61.12582
      H    H13700    36.61127   -6.91559   61.98051
      O    O13701    21.10203   -9.39308   62.91882
      H    H13702    20.20764   -9.42640   63.25819
      H    H13703    21.64179   -9.19440   63.68394
      O    O13704    19.72665   -9.47935   50.41517
      H    H13705    18.82305   -9.21633   50.24034
      H    H13706    20.21071   -9.20823   49.63517
      O    O13707    36.23595   -8.75695   55.69279
      H    H13708    36.75970   -9.25069   55.06181
      H    H13709    36.82189   -8.62192   56.43755
      O    O13710    36.41492   -8.67297   59.21475
      H    H13711    35.46519   -8.70661   59.32925
      H    H13712    36.59622   -7.76295   58.97972
      O    O13713    35.05938    1.77749   54.02593
      H    H13714    35.65529    1.45595   53.34937
      H    H13715    35.31720    1.30467   54.81725
      O    O13716    22.96564   -1.79072   64.17499
      H    H13717    22.92260   -2.16143   65.05643
      H    H13718    23.09674   -0.85296   64.31517
      O    O13719    26.66624   -0.23476   59.77596
      H    H13720    26.42538    0.03270   58.88901
      H    H13721    27.60651   -0.06419   59.83105
      O    O13722    37.92666    1.78468   60.57702
      H    H13723    37.43249    2.18157   59.85974
      H    H13724    37.31799    1.15960   60.97075
      O    O13725    22.80444    1.15551   61.29477
      H    H13726    22.21047    1.02398   62.03377
      H    H13727    22.79683    0.31932   60.82898
      O    O13728    35.61060    2.42702   57.85570
      H    H13729    35.15090    3.17860   57.48150
      H    H13730    34.98185    1.70767   57.79718
      O    O13731    22.43567   -1.47866   60.24557
      H    H13732    21.70907   -2.09813   60.17817
      H    H13733    22.49658   -1.08459   59.37538
      O    O13734    26.04018    0.73584   57.03051
      H    H13735    26.55668    0.12458   56.50534
      H    H13736    26.68991    1.23872   57.52161
      O    O13737    28.77973    1.62669   57.85741
      H    H13738    29.06751    1.37212   56.98071
      H    H13739    29.29205    1.07443   58.44797
      O    O13740    20.71867    1.83878   53.45525
      H    H13741    20.55087    1.20585   54.15344
      H    H13742    19.85212    2.04472   53.10467
      O    O13743    22.32494    0.53211   50.90026
      H    H13744    21.79970    0.91291   50.19646
      H    H13745    22.24939    1.15718   51.62123
      O    O13746    28.84696    2.54830   65.22423
      H    H13747    29.77369    2.31273   65.26783
      H    H13748    28.83200    3.37550   64.74283
      O    O13749    37.08147    2.09086   52.22165
      H    H13750    37.25669    1.40463   51.57775
      H    H13751    36.38362    2.61557   51.82932
      O    O13752    24.92423    2.48034   49.77519
      H    H13753    25.65611    2.19627   49.22757
      H    H13754    25.18360    2.24167   50.66512
      O    O13755    24.08571   -1.40318   49.77982
      H    H13756    23.45660   -0.93467   50.32840
      H    H13757    24.20049   -2.24826   50.21444
      O    O13758    35.41472    1.77529   65.04833
      H    H13759    36.20725    1.28021   64.84093
      H    H13760    35.70803    2.45430   65.65589
      O    O13761    -6.00802   11.42173   54.70429
      H    H13762    -6.08861   10.50719   54.43346
      H    H13763    -6.42157   11.91844   53.99826
      O    O13764    -7.87621   13.19964   56.58521
      H    H13765    -8.65200   12.71968   56.87507
      H    H13766    -7.22492   12.52020   56.41083
      O    O13767    -3.85547   17.60565   55.36513
      H    H13768    -4.31732   16.83438   55.69384
      H    H13769    -3.04291   17.63226   55.87037
      O    O13770    -7.62914   19.89146   54.98553
      H    H13771    -8.24799   20.34721   54.41497
      H    H13772    -6.77396   20.04660   54.58450
      O    O13773    -8.43531   15.87535   56.59223
      H    H13774    -8.50449   14.93435   56.43114
      H    H13775    -7.67333   15.96550   57.16449
      O    O13776    -7.40480    8.68239   56.81912
      H    H13777    -7.02831    7.80958   56.70649
      H    H13778    -7.50285    9.01826   55.92817
      O    O13779    -3.62238    6.17744   53.75196
      H    H13780    -2.80142    5.68709   53.79451
      H    H13781    -3.58898    6.76720   54.50514
      O    O13782     0.66757    8.19411   60.31632
      H    H13783    -0.03721    8.58228   59.79783
      H    H13784     0.93336    8.88914   60.91841
      O    O13785    -6.76280   14.77538   52.37872
      H    H13786    -7.38108   15.24032   51.81499
      H    H13787    -6.25048   15.46813   52.79567
      O    O13788    -3.38624    8.11747   56.52471
      H    H13789    -4.09068    8.40596   57.10502
      H    H13790    -3.02502    8.92749   56.16467
      O    O13791    -1.76996   17.73499   58.78746
      H    H13792    -2.45361   18.40490   58.77913
      H    H13793    -1.23053   17.93305   58.02195
      O    O13794    -0.31754    7.56295   56.91563
      H    H13795    -1.26505    7.59685   57.04718
      H    H13796     0.00745    8.37685   57.30057
      O    O13797    -4.23408   19.57940   57.50198
      H    H13798    -4.22137   19.17563   56.63420
      H    H13799    -4.78656   20.35413   57.39812
      O    O13800    -2.93954   16.30102   52.59099
      H    H13801    -3.04991   15.35846   52.71594
      H    H13802    -2.94272   16.66259   53.47727
      O    O13803    -4.83554   14.48238   58.83024
      H    H13804    -4.41866   14.26840   57.99558
      H    H13805    -4.11156   14.73966   59.40110
      O    O13806    -7.39751   11.92755   51.94724
      H    H13807    -8.32459   11.86129   52.17609
      H    H13808    -7.24503   12.86557   51.83277
      O    O13809    -7.41061    8.19925   48.94396
      H    H13810    -8.35024    8.36065   49.02921
      H    H13811    -7.09228    8.91782   48.39756
      O    O13812    -0.88933   12.88111   58.92186
      H    H13813    -1.71747   12.95042   58.44688
      H    H13814    -0.29428   13.46654   58.45345
      O    O13815    -3.36779   13.48958   52.45077
      H    H13816    -3.98654   13.15154   51.80340
      H    H13817    -3.38534   12.84556   53.15869
      O    O13818    -3.92513    9.66804   59.86735
      H    H13819    -4.33801   10.49341   60.12135
      H    H13820    -4.65753    9.08254   59.67499
      O    O13821    -3.23512   19.71397   60.55545
      H    H13822    -3.71206   20.52119   60.36271
      H    H13823    -3.91894   19.06180   60.70807
      O    O13824    -5.19132   12.72827   49.45804
      H    H13825    -4.75199   11.89051   49.31183
      H    H13826    -4.47847   13.36121   49.54446
      O    O13827    -7.08178   17.66787   53.42617
      H    H13828    -6.64219   18.41031   53.01171
      H    H13829    -7.14309   17.91053   54.35006
      O    O13830    -1.60960    3.98255   47.77215
      H    H13831    -1.92234    4.07523   48.67205
      H    H13832    -0.84835    4.56065   47.72189
      O    O13833     0.34480   19.47517   65.62459
      H    H13834     0.82077   19.95345   66.30349
      H    H13835     0.96552   19.40691   64.89914
      O    O13836    -0.25187   16.66645   62.78459
      H    H13837    -0.12557   16.42764   61.86631
      H    H13838    -0.20974   15.83490   63.25680
      O    O13839    -6.39020   20.36925   61.35407
      H    H13840    -5.87573   20.28005   62.15631
      H    H13841    -7.23329   20.71522   61.64686
      O    O13842    -4.41476   20.65478   50.78247
      H    H13843    -4.57465   20.36508   51.68065
      H    H13844    -4.58009   19.87880   50.24699
      O    O13845    -4.71215   18.16354   49.34227
      H    H13846    -5.40563   18.16127   48.68250
      H    H13847    -3.96986   17.73947   48.91169
      O    O13848    -5.14715   19.78981   53.41712
      H    H13849    -4.69146   19.00875   53.73098
      H    H13850    -4.80790   20.50049   53.96124
      O    O13851    -0.39947    8.71970   63.74956
      H    H13852    -1.01505    9.22766   63.22111
      H    H13853    -0.71983    7.81953   63.69216
      O    O13854    -8.33804    7.55889   61.21578
      H    H13855    -8.80010    7.76719   62.02777
      H    H13856    -8.74023    6.74482   60.91285
      O    O13857    -3.33759    8.77978   62.34545
      H    H13858    -4.18823    8.48036   62.66635
      H    H13859    -3.49741    9.02398   61.43383
      O    O13860    -6.24262   10.27996   64.44533
      H    H13861    -5.91728    9.44633   64.10555
      H    H13862    -5.45459   10.80281   64.59316
      O    O13863    -5.60382    9.82173   51.93944
      H    H13864    -6.20293   10.54531   51.75580
      H    H13865    -5.05586    9.75941   51.15708
      O    O13866    -6.99734    8.45808   53.96977
      H    H13867    -6.60438    8.77530   53.15664
      H    H13868    -6.63565    7.57927   54.08422
      O    O13869    -8.68812    7.20881   65.22945
      H    H13870    -9.37829    7.01603   65.86406
      H    H13871    -7.94489    7.49228   65.76188
      O    O13872    -6.41182   11.04866   58.06484
      H    H13873    -7.14371   11.55734   58.41385
      H    H13874    -6.80939   10.23165   57.76372
      O    O13875    -5.94923    6.50202   57.47714
      H    H13876    -5.93196    6.95289   58.32132
      H    H13877    -6.19767    5.60259   57.69048
      O    O13878    -2.52216    3.91524   63.31578
      H    H13879    -2.19758    3.18421   63.84157
      H    H13880    -2.48651    3.59661   62.41388
      O    O13881    -2.59637   14.02775   56.92438
      H    H13882    -1.87646   14.52328   56.53399
      H    H13883    -2.79819   13.34954   56.27977
      O    O13884    -7.13538    5.42155   51.06732
      H    H13885    -7.94892    4.92287   50.99185
      H    H13886    -7.32918    6.26137   50.65095
      O    O13887    -7.21449   14.09866   62.81128
      H    H13888    -7.28076   13.17823   62.55704
      H    H13889    -7.84398   14.19620   63.52574
      O    O13890    -4.42054    9.79351   49.36353
      H    H13891    -3.53258   10.10524   49.18867
      H    H13892    -4.45003    8.92074   48.97159
      O    O13893    -8.42448   15.96588   50.04235
      H    H13894    -8.08291   16.71011   49.54668
      H    H13895    -9.25321   16.27900   50.40483
      O    O13896    -7.28282   16.92072   62.56166
      H    H13897    -7.26837   15.98881   62.34355
      H    H13898    -7.99031   17.00669   63.20064
      O    O13899    -2.14911   11.10470   48.83152
      H    H13900    -2.23274   11.53612   47.98116
      H    H13901    -1.42969   11.56453   49.26420
      O    O13902    -1.07170   13.56145   61.90852
      H    H13903    -1.79688   14.15433   61.71146
      H    H13904    -0.54415   13.55380   61.10985
      O    O13905    -1.12039   17.95892   51.55973
      H    H13906    -1.76277   17.30449   51.83411
      H    H13907    -1.50732   18.36443   50.78380
      O    O13908    -5.54174   15.28747   55.40690
      H    H13909    -5.18936   14.69028   54.74704
      H    H13910    -6.42551   14.96189   55.57773
      O    O13911    -7.84943   18.56247   59.65571
      H    H13912    -7.20521   18.76841   60.33305
      H    H13913    -7.48649   17.80131   59.20279
      O    O13914    -6.57622   16.56571   58.37345
      H    H13915    -5.93400   15.86502   58.48667
      H    H13916    -6.05129   17.34555   58.19314
      O    O13917    -2.73065   16.85057   48.09737
      H    H13918    -2.95689   16.13361   48.68983
      H    H13919    -3.12103   16.60181   47.25954
      O    O13920    -4.80246   17.36520   61.57706
      H    H13921    -4.46684   17.95187   62.25485
      H    H13922    -5.72243   17.23447   61.80684
      O    O13923    -3.14902   14.76776   49.75878
      H    H13924    -3.43685   15.22903   50.54657
      H    H13925    -2.35381   14.30754   50.02721
      O    O13926    -5.75824    7.64695   60.10955
      H    H13927    -5.39016    6.82647   60.43750
      H    H13928    -6.61842    7.70714   60.52511
      O    O13929    -2.39204    6.60264   50.91830
      H    H13930    -3.02072    6.70721   50.20413
      H    H13931    -2.88685    6.82232   51.70769
      O    O13932    -7.94622   18.32320   48.35170
      H    H13933    -7.84503   18.11960   47.42190
      H    H13934    -8.84605   18.06903   48.55648
      O    O13935    -8.79804   10.30091   60.33334
      H    H13936    -8.29952   10.77549   60.99853
      H    H13937    -8.65575    9.37726   60.54035
      O    O13938    -6.39209    5.60630   53.77367
      H    H13939    -6.51531    5.62492   52.82462
      H    H13940    -5.44364    5.65420   53.89351
      O    O13941    -1.59136    6.51770   61.17618
      H    H13942    -2.09400    7.25824   61.51556
      H    H13943    -0.77569    6.90610   60.85986
      O    O13944    -3.29916   11.76102   54.62232
      H    H13945    -4.24014   11.77604   54.79709
      H    H13946    -2.98475   10.97462   55.06835
      O    O13947    -1.29660   18.93191   56.29774
      H    H13948    -1.17186   19.75502   56.77013
      H    H13949    -0.43004   18.72098   55.95016
      O    O13950    -5.98255   16.31762   65.10556
      H    H13951    -6.58874   16.34078   64.36513
      H    H13952    -6.28714   15.58592   65.64228
      O    O13953    -4.55252   20.04565   63.71650
      H    H13954    -3.60034   19.96145   63.66652
      H    H13955    -4.69969   20.70982   64.38988
      O    O13956    -1.66160   19.42507   49.21569
      H    H13957    -1.94745   19.01158   48.40111
      H    H13958    -1.85964   20.35384   49.09574
      O    O13959    -6.95660   14.48040   48.26045
      H    H13960    -7.50559   14.92733   48.90472
      H    H13961    -6.33467   13.97533   48.78422
      O    O13962    -2.90311   15.83461   64.19267
      H    H13963    -2.16216   16.17219   63.68942
      H    H13964    -3.66584   16.00382   63.63965
      O    O13965    -8.77632   12.46325   47.40469
      H    H13966    -8.25576   11.74816   47.03880
      H    H13967    -8.12948   13.10184   47.70474
      O    O13968    -4.22854   13.88609   62.72820
      H    H13969    -3.81444   14.04060   63.57724
      H    H13970    -5.16344   14.01162   62.89077
      O    O13971    -3.75632   11.22571   64.73211
      H    H13972    -3.17425   10.47094   64.64416
      H    H13973    -3.58015   11.75645   63.95526
      O    O13974    -7.13063   11.56976   62.08157
      H    H13975    -7.01101   10.97387   62.82106
      H    H13976    -6.27123   11.60673   61.66170
      O    O13977    -4.79184   12.12348   60.65782
      H    H13978    -5.31832   12.64774   60.05434
      H    H13979    -4.44870   12.75622   61.28880
      O    O13980    -5.54441    7.72848   63.57246
      H    H13981    -6.23286    7.06663   63.50746
      H    H13982    -4.82381    7.28230   64.01730
      O    O13983    -4.91437    4.32364   49.63148
      H    H13984    -4.63414    3.48043   49.98742
      H    H13985    -5.68779    4.55595   50.14536
      O    O13986    -8.76005   21.37856   62.07223
      H    H13987    -8.83418   22.28208   62.37946
      H    H13988    -9.66217   21.05975   62.04443
      O    O13989    -8.21152   20.54442   49.69486
      H    H13990    -7.31644   20.88291   49.71674
      H    H13991    -8.17976   19.82236   49.06729
      O    O13992    -1.23209   19.07478   62.40148
      H    H13993    -1.83189   19.13404   61.65787
      H    H13994    -1.10270   18.13528   62.53117
      O    O13995     0.00806   16.81656   47.73845
      H    H13996    -0.82265   16.88423   48.20918
      H    H13997     0.18524   17.70698   47.43514
      O    O13998    -0.53630   13.56131   50.24187
      H    H13999     0.22560   14.13098   50.34784
      H    H14000    -0.52086   12.99403   51.01270
      O    O14001     0.46970   14.41632   55.08607
      H    H14002     0.84058   13.63305   54.67966
      H    H14003     1.10989   15.10523   54.90780
      O    O14004    -2.54692   15.79998   60.49910
      H    H14005    -3.36094   16.22970   60.76168
      H    H14006    -2.13950   16.41182   59.88600
      O    O14007    -0.48438   13.85475   47.39913
      H    H14008    -0.20949   14.76264   47.27105
      H    H14009    -0.67330   13.79100   48.33532
      O    O14010    -4.08682    6.87923   48.69449
      H    H14011    -3.66833    6.69233   47.85415
      H    H14012    -4.39321    6.02714   49.00478
      O    O14013    -0.58784   11.79165   52.39207
      H    H14014    -0.96348   11.02444   51.96020
      H    H14015    -1.31753   12.17392   52.87956
      O    O14016    -1.19788   10.93880   62.02602
      H    H14017    -1.42927   10.71008   61.12582
      H    H14018    -0.93743   11.85876   61.98051
      O    O14019    -2.75908    6.16444   64.80399
      H    H14020    -1.88206    6.17278   65.18739
      H    H14021    -2.74699    5.42753   64.19323
      O    O14022    -1.31275   10.01740   55.69279
      H    H14023    -0.78900    9.52366   55.06181
      H    H14024    -0.72681   10.15243   56.43755
      O    O14025    -1.13378   10.10138   59.21475
      H    H14026    -2.08351   10.06774   59.32925
      H    H14027    -0.95248   11.01140   58.97972
      O    O14028    -1.82275    9.27473   51.63203
      H    H14029    -1.32684    9.04182   52.41692
      H    H14030    -2.02114    8.43592   51.21580
      O    O14031    -0.39404    7.91083   54.16580
      H    H14032    -0.50411    7.75643   55.10403
      H    H14033     0.36672    7.38292   53.92334
      O    O14034    -2.04746    3.85024   60.62410
      H    H14035    -1.41024    4.46365   60.99002
      H    H14036    -1.89997    3.88631   59.67902
      O    O14037     0.49499    5.74162   47.40642
      H    H14038     1.41992    5.60974   47.19824
      H    H14039     0.47257    5.82090   48.36006
      O    O14040     0.56884    6.51269   50.03209
      H    H14041    -0.22601    6.44720   50.56138
      H    H14042     0.77317    7.44775   50.02062
      O    O14043    -2.48932   20.55184   54.02593
      H    H14044    -1.89341   20.23030   53.34937
      H    H14045    -2.23150   20.07902   54.81725
      O    O14046    -8.67702    5.00286   63.53161
      H    H14047    -8.73813    5.59504   64.28115
      H    H14048    -7.73698    4.89546   63.38664
      O    O14049    -6.03956    4.65987   63.17084
      H    H14050    -5.42552    4.97779   62.50895
      H    H14051    -5.49460    4.17472   63.79043
      O    O14052     0.37796   20.55903   60.57702
      H    H14053    -0.11621   20.95592   59.85974
      H    H14054    -0.23071   19.93395   60.97075
      O    O14055    -5.29876    3.22308   59.49777
      H    H14056    -6.17277    3.55659   59.29506
      H    H14057    -5.40768    2.75040   60.32296
      O    O14058    -4.39156    5.43017   60.88194
      H    H14059    -4.72022    4.61534   60.50211
      H    H14060    -3.44333    5.38715   60.75851
      O    O14061    -1.93810   21.20137   57.85570
      H    H14062    -2.39780   21.95295   57.48150
      H    H14063    -2.56685   20.48202   57.79718
      O    O14064    -8.76897   20.40104   57.85741
      H    H14065    -8.48119   20.14647   56.98071
      H    H14066    -8.25665   19.84878   58.44797
      O    O14067    -7.55127    4.14006   58.43706
      H    H14068    -8.33409    4.61461   58.71674
      H    H14069    -7.84498    3.23555   58.32838
      O    O14070    -2.99917    4.84237   56.48197
      H    H14071    -2.55836    4.78688   55.63413
      H    H14072    -3.26841    5.75817   56.55299
      O    O14073    -1.13531    4.47390   54.49285
      H    H14074    -1.19647    3.53002   54.34595
      H    H14075    -0.35611    4.58191   55.03820
      O    O14076    -5.16335    3.22298   55.18697
      H    H14077    -4.56042    3.79500   55.66182
      H    H14078    -5.90405    3.78693   54.96436
      O    O14079    -2.01989    3.62514   50.46100
      H    H14080    -1.82483    4.52348   50.72774
      H    H14081    -2.80691    3.39385   50.95429
      O    O14082    -8.70174   21.32265   65.22423
      H    H14083    -7.77501   21.08708   65.26783
      H    H14084    -8.71670   22.14985   64.74283
      O    O14085    -0.46723   20.86521   52.22165
      H    H14086    -0.29201   20.17898   51.57775
      H    H14087    -1.16508   21.38992   51.82932
      O    O14088    -4.91383    3.40249   65.56646
      H    H14089    -5.02729    3.72195   66.46162
      H    H14090    -4.09686    3.80374   65.27019
      O    O14091    -2.13398   20.54964   65.04833
      H    H14092    -1.34145   20.05456   64.84093
      H    H14093    -1.84067   21.22865   65.65589
      O    O14094    12.76633   11.42173   54.70429
      H    H14095    12.68574   10.50719   54.43346
      H    H14096    12.35278   11.91844   53.99826
      O    O14097    10.89814   13.19964   56.58521
      H    H14098    10.12235   12.71968   56.87507
      H    H14099    11.54943   12.52020   56.41083
      O    O14100     4.91472   13.51162   57.46279
      H    H14101     4.08321   13.25649   57.86244
      H    H14102     5.52282   13.58269   58.19858
      O    O14103    14.91888   17.60565   55.36513
      H    H14104    14.45703   16.83438   55.69384
      H    H14105    15.73144   17.63226   55.87037
      O    O14106     4.89485   17.54563   57.65859
      H    H14107     5.19765   16.65540   57.47961
      H    H14108     5.63921   18.10265   57.43082
      O    O14109     3.32392    8.47181   51.24703
      H    H14110     2.43559    8.81340   51.14502
      H    H14111     3.60803    8.27184   50.35511
      O    O14112     1.28722   11.07237   57.13100
      H    H14113     1.85883   10.30459   57.13136
      H    H14114     1.28737   11.37125   56.22166
      O    O14115    11.14521   19.89146   54.98553
      H    H14116    10.52636   20.34721   54.41497
      H    H14117    12.00039   20.04660   54.58450
      O    O14118    10.33904   15.87535   56.59223
      H    H14119    10.26986   14.93435   56.43114
      H    H14120    11.10102   15.96550   57.16449
      O    O14121     2.52970    6.48081   58.91789
      H    H14122     2.34999    5.58338   59.19817
      H    H14123     2.12771    7.02799   59.59259
      O    O14124    11.36955    8.68239   56.81912
      H    H14125    11.74604    7.80958   56.70649
      H    H14126    11.27150    9.01826   55.92817
      O    O14127     5.50005    7.05496   52.28087
      H    H14128     5.60673    7.95533   52.58774
      H    H14129     4.58929    7.00675   51.99033
      O    O14130    15.15197    6.17744   53.75196
      H    H14131    15.97293    5.68709   53.79451
      H    H14132    15.18537    6.76720   54.50514
      O    O14133     3.14837    8.97686   57.52613
      H    H14134     3.82938    9.24069   58.14487
      H    H14135     2.83318    8.13694   57.85993
      O    O14136     7.34083   10.02359   56.61339
      H    H14137     7.84865   10.52169   57.25389
      H    H14138     7.87215    9.24711   56.43732
      O    O14139    19.44192    8.19411   60.31632
      H    H14140    18.73714    8.58228   59.79783
      H    H14141    19.70771    8.88914   60.91841
      O    O14142     5.62444    4.66345   60.87973
      H    H14143     5.62628    5.18069   60.07432
      H    H14144     4.79487    4.18647   60.85672
      O    O14145    12.01155   14.77538   52.37872
      H    H14146    11.39327   15.24032   51.81499
      H    H14147    12.52387   15.46813   52.79567
      O    O14148     6.87472   14.30297   59.05708
      H    H14149     6.54166   14.92986   59.69918
      H    H14150     7.05139   14.82915   58.27724
      O    O14151    15.38811    8.11747   56.52471
      H    H14152    14.68367    8.40596   57.10502
      H    H14153    15.74933    8.92749   56.16467
      O    O14154     5.30597    6.37444   58.88677
      H    H14155     5.64765    7.21865   58.59216
      H    H14156     4.36755    6.52282   59.00331
      O    O14157     6.08663   16.27105   60.87200
      H    H14158     6.70403   16.94615   60.59044
      H    H14159     5.22594   16.67984   60.78075
      O    O14160     1.37987   15.46103   49.75268
      H    H14161     1.00266   15.94974   49.02117
      H    H14162     1.63717   16.13356   50.38333
      O    O14163    17.00439   17.73499   58.78746
      H    H14164    16.32074   18.40490   58.77913
      H    H14165    17.54382   17.93305   58.02195
      O    O14166    18.45681    7.56295   56.91563
      H    H14167    17.50930    7.59685   57.04718
      H    H14168    18.78180    8.37685   57.30057
      O    O14169     8.98876    3.86267   55.21123
      H    H14170     9.29626    3.30736   54.49478
      H    H14171     8.05883    3.99712   55.02853
      O    O14172    14.54027   19.57940   57.50198
      H    H14173    14.55298   19.17563   56.63420
      H    H14174    13.98779   20.35413   57.39812
      O    O14175    15.83481   16.30102   52.59099
      H    H14176    15.72444   15.35846   52.71594
      H    H14177    15.83163   16.66259   53.47727
      O    O14178    13.93881   14.48238   58.83024
      H    H14179    14.35569   14.26840   57.99558
      H    H14180    14.66279   14.73966   59.40110
      O    O14181    11.37684   11.92755   51.94724
      H    H14182    10.44976   11.86129   52.17609
      H    H14183    11.52932   12.86557   51.83277
      O    O14184    11.36374    8.19925   48.94396
      H    H14185    10.42411    8.36065   49.02921
      H    H14186    11.68207    8.91782   48.39756
      O    O14187    17.88502   12.88111   58.92186
      H    H14188    17.05688   12.95042   58.44688
      H    H14189    18.48007   13.46654   58.45345
      O    O14190    15.40656   13.48958   52.45077
      H    H14191    14.78781   13.15154   51.80340
      H    H14192    15.38901   12.84556   53.15869
      O    O14193    14.84922    9.66804   59.86735
      H    H14194    14.43634   10.49341   60.12135
      H    H14195    14.11682    9.08254   59.67499
      O    O14196     6.98250   12.45403   54.72922
      H    H14197     6.57820   11.74175   54.23381
      H    H14198     7.06881   12.10935   55.61802
      O    O14199     7.45067   16.14078   56.89314
      H    H14200     7.15350   15.53533   56.21392
      H    H14201     8.40065   16.17852   56.78207
      O    O14202     5.69536    9.22835   58.50912
      H    H14203     6.24682    9.33788   57.73445
      H    H14204     6.20971    9.60211   59.22464
      O    O14205    15.53923   19.71397   60.55545
      H    H14206    15.06229   20.52119   60.36271
      H    H14207    14.85541   19.06180   60.70807
      O    O14208     6.54251   15.87895   63.54392
      H    H14209     5.64537   16.10295   63.79126
      H    H14210     6.56780   16.00245   62.59506
      O    O14211    13.58303   12.72827   49.45804
      H    H14212    14.02236   11.89051   49.31183
      H    H14213    14.29588   13.36121   49.54446
      O    O14214     5.36963   12.75029   62.11965
      H    H14215     5.23041   13.62257   62.48839
      H    H14216     4.48777   12.40757   61.97445
      O    O14217    11.69257   17.66787   53.42617
      H    H14218    12.13216   18.41031   53.01171
      H    H14219    11.63126   17.91053   54.35006
      O    O14220     7.16767   18.69246   64.32817
      H    H14221     7.13921   19.09675   63.46101
      H    H14222     7.00417   17.76349   64.16533
      O    O14223    17.16475    3.98255   47.77215
      H    H14224    16.85201    4.07523   48.67205
      H    H14225    17.92600    4.56065   47.72189
      O    O14226     3.68296   11.34853   52.22988
      H    H14227     3.56272   12.07474   51.61801
      H    H14228     3.37305   10.57882   51.75267
      O    O14229    19.11915   19.47517   65.62459
      H    H14230    19.59512   19.95345   66.30349
      H    H14231    19.73987   19.40691   64.89914
      O    O14232     1.32150   14.52004   58.03675
      H    H14233     1.39954   14.65492   57.09232
      H    H14234     1.93567   13.81163   58.22956
      O    O14235     2.56626   16.22006   54.44736
      H    H14236     2.15907   16.36152   53.59272
      H    H14237     3.45756   15.93608   54.24448
      O    O14238    18.52248   16.66645   62.78459
      H    H14239    18.64878   16.42764   61.86631
      H    H14240    18.56461   15.83490   63.25680
      O    O14241    12.38415   20.36925   61.35407
      H    H14242    12.89862   20.28005   62.15631
      H    H14243    11.54106   20.71522   61.64686
      O    O14244    14.35959   20.65478   50.78247
      H    H14245    14.19970   20.36508   51.68065
      H    H14246    14.19426   19.87880   50.24699
      O    O14247     6.83843   20.43464   52.55963
      H    H14248     6.66268   19.51819   52.34641
      H    H14249     5.98400   20.79337   52.79941
      O    O14250    14.06220   18.16354   49.34227
      H    H14251    13.36872   18.16127   48.68250
      H    H14252    14.80449   17.73947   48.91169
      O    O14253    13.62720   19.78981   53.41712
      H    H14254    14.08289   19.00875   53.73098
      H    H14255    13.96645   20.50049   53.96124
      O    O14256    18.37488    8.71970   63.74956
      H    H14257    17.75930    9.22766   63.22111
      H    H14258    18.05452    7.81953   63.69216
      O    O14259     1.37745   15.56146   60.57619
      H    H14260     1.54056   15.09199   59.75813
      H    H14261     1.84270   15.05381   61.24108
      O    O14262     6.14933    4.69203   55.61225
      H    H14263     5.70614    5.47299   55.28070
      H    H14264     6.70783    5.01502   56.31934
      O    O14265    10.43631    7.55889   61.21578
      H    H14266     9.97425    7.76719   62.02777
      H    H14267    10.03412    6.74482   60.91285
      O    O14268    15.43676    8.77978   62.34545
      H    H14269    14.58612    8.48036   62.66635
      H    H14270    15.27694    9.02398   61.43383
      O    O14271    12.53173   10.27996   64.44533
      H    H14272    12.85707    9.44633   64.10555
      H    H14273    13.31976   10.80281   64.59316
      O    O14274     9.26521    4.31310   50.49283
      H    H14275     8.64063    4.30909   51.21816
      H    H14276     9.17822    3.44620   50.09643
      O    O14277     8.18692    5.23677   57.47121
      H    H14278     8.48415    6.14305   57.39041
      H    H14279     8.73547    4.74864   56.85717
      O    O14280     5.94075    9.81539   53.34037
      H    H14281     5.71484    9.59911   54.24504
      H    H14282     5.16000   10.24824   52.99497
      O    O14283    13.17053    9.82173   51.93944
      H    H14284    12.57142   10.54531   51.75580
      H    H14285    13.71849    9.75941   51.15708
      O    O14286     8.38067   10.71395   64.00640
      H    H14287     8.28503    9.77342   63.85644
      H    H14288     9.22387   10.93546   63.61121
      O    O14289    11.77701    8.45808   53.96977
      H    H14290    12.16997    8.77530   53.15664
      H    H14291    12.13870    7.57927   54.08422
      O    O14292     3.51173    7.12532   62.15978
      H    H14293     3.11806    7.97284   62.36706
      H    H14294     2.82357    6.48795   62.35064
      O    O14295    10.08623    7.20881   65.22945
      H    H14296     9.39606    7.01603   65.86406
      H    H14297    10.82946    7.49228   65.76188
      O    O14298     0.81343    5.04816   56.19279
      H    H14299     0.52474    5.61845   56.90528
      H    H14300     1.55801    4.56861   56.55591
      O    O14301     1.00045    8.99017   47.40306
      H    H14302     0.91792    9.93325   47.54456
      H    H14303     0.64876    8.84766   46.52429
      O    O14304    12.36253   11.04866   58.06484
      H    H14305    11.63064   11.55734   58.41385
      H    H14306    11.96496   10.23165   57.76372
      O    O14307     8.80027    7.72408   56.47009
      H    H14308     8.80387    7.28307   55.62055
      H    H14309     9.69538    8.04581   56.57728
      O    O14310     4.65050    7.60673   55.42951
      H    H14311     4.31051    8.08425   56.18622
      H    H14312     3.88824    7.15324   55.06962
      O    O14313     8.86228    8.72528   49.46077
      H    H14314     8.98356    8.68393   50.40935
      H    H14315     8.47713    9.58770   49.30544
      O    O14316    12.82512    6.50202   57.47714
      H    H14317    12.84239    6.95289   58.32132
      H    H14318    12.57668    5.60259   57.69048
      O    O14319     7.87443   11.03540   48.85910
      H    H14320     7.30612   10.58722   48.23269
      H    H14321     8.58333   11.39468   48.32561
      O    O14322    16.25219    3.91524   63.31578
      H    H14323    16.57677    3.18421   63.84157
      H    H14324    16.28784    3.59661   62.41388
      O    O14325     2.95135   14.93660   62.73577
      H    H14326     2.56683   14.29597   63.33407
      H    H14327     3.26257   15.64021   63.30525
      O    O14328     9.10106   11.78425   58.21663
      H    H14329     9.46808   11.31011   58.96277
      H    H14330     8.91157   12.65841   58.55747
      O    O14331     1.96511    6.52862   54.34598
      H    H14332     1.67980    6.16419   55.18384
      H    H14333     1.90300    5.79667   53.73230
      O    O14334     6.89100   10.82512   60.53506
      H    H14335     6.58671   11.70432   60.76009
      H    H14336     7.84565   10.88510   60.57080
      O    O14337     5.41918   15.03122   51.13174
      H    H14338     4.64541   14.49098   50.97161
      H    H14339     6.14864   14.51188   50.79352
      O    O14340    16.17798   14.02775   56.92438
      H    H14341    16.89789   14.52328   56.53399
      H    H14342    15.97616   13.34954   56.27977
      O    O14343    11.63897    5.42155   51.06732
      H    H14344    10.82543    4.92287   50.99185
      H    H14345    11.44517    6.26137   50.65095
      O    O14346    11.55986   14.09866   62.81128
      H    H14347    11.49359   13.17823   62.55704
      H    H14348    10.93037   14.19620   63.52574
      O    O14349    14.35381    9.79351   49.36353
      H    H14350    15.24177   10.10524   49.18867
      H    H14351    14.32432    8.92074   48.97159
      O    O14352     5.46292   14.69926   54.76962
      H    H14353     5.98079   13.89608   54.71531
      H    H14354     5.01132   14.63717   55.61130
      O    O14355    10.34987   15.96588   50.04235
      H    H14356    10.69144   16.71011   49.54668
      H    H14357     9.52114   16.27900   50.40483
      O    O14358     2.94737   11.66539   61.68219
      H    H14359     2.58887   12.33078   62.26953
      H    H14360     2.65283   10.83375   62.05345
      O    O14361     6.14869   12.12382   64.56615
      H    H14362     5.84870   12.26953   63.66893
      H    H14363     6.91981   11.56435   64.47349
      O    O14364    11.49153   16.92072   62.56166
      H    H14365    11.50598   15.98881   62.34355
      H    H14366    10.78404   17.00669   63.20064
      O    O14367    17.70265   13.56145   61.90852
      H    H14368    16.97747   14.15433   61.71146
      H    H14369    18.23020   13.55380   61.10985
      O    O14370    17.65396   17.95892   51.55973
      H    H14371    17.01158   17.30449   51.83411
      H    H14372    17.26703   18.36443   50.78380
      O    O14373    13.23261   15.28747   55.40690
      H    H14374    13.58499   14.69028   54.74704
      H    H14375    12.34884   14.96189   55.57773
      O    O14376     9.31894   16.04724   52.81394
      H    H14377    10.00605   16.59416   53.19470
      H    H14378     8.53218   16.59131   52.84890
      O    O14379     1.45818   11.66452   48.30565
      H    H14380     2.32766   11.94700   48.58924
      H    H14381     0.96721   12.47811   48.19053
      O    O14382     8.62166   13.05184   52.42648
      H    H14383     9.07794   13.86236   52.65250
      H    H14384     8.27048   12.73415   53.25833
      O    O14385    10.92492   18.56247   59.65571
      H    H14386    11.56914   18.76841   60.33305
      H    H14387    11.28786   17.80131   59.20279
      O    O14388     4.52284    3.39560   52.89873
      H    H14389     4.39430    3.38739   53.84722
      H    H14390     3.69904    3.73391   52.54783
      O    O14391    12.19813   16.56571   58.37345
      H    H14392    12.84035   15.86502   58.48667
      H    H14393    12.72306   17.34555   58.19314
      O    O14394    16.04370   16.85057   48.09737
      H    H14395    15.81746   16.13361   48.68983
      H    H14396    15.65332   16.60181   47.25954
      O    O14397    13.97189   17.36520   61.57706
      H    H14398    14.30751   17.95187   62.25485
      H    H14399    13.05192   17.23447   61.80684
      O    O14400     1.82530   20.87726   48.87181
      H    H14401     2.18507   21.47619   48.21754
      H    H14402     1.68454   21.42325   49.64532
      O    O14403     1.52223    5.15472   62.35940
      H    H14404     0.80808    5.35441   62.96466
      H    H14405     1.94173    4.37867   62.73088
      O    O14406    15.62533   14.76776   49.75878
      H    H14407    15.33750   15.22903   50.54657
      H    H14408    16.42054   14.30754   50.02721
      O    O14409     1.80949   19.14274   63.34605
      H    H14410     1.91860   18.20222   63.20559
      H    H14411     1.15755   19.40822   62.69743
      O    O14412     9.80075   17.41433   64.74587
      H    H14413     9.48044   16.69526   65.29044
      H    H14414     9.12658   18.08984   64.81947
      O    O14415     7.84217   18.26038   49.68918
      H    H14416     7.83318   18.99335   49.07363
      H    H14417     6.92200   18.01353   49.78188
      O    O14418     3.44283   13.48187   50.43386
      H    H14419     2.83562   14.22176   50.44339
      H    H14420     3.91776   13.57180   49.60768
      O    O14421    13.01611    7.64695   60.10955
      H    H14422    13.38419    6.82647   60.43750
      H    H14423    12.15593    7.70714   60.52511
      O    O14424    16.38231    6.60264   50.91830
      H    H14425    15.75363    6.70721   50.20413
      H    H14426    15.88750    6.82232   51.70769
      O    O14427    10.82813   18.32320   48.35170
      H    H14428    10.92932   18.11960   47.42190
      H    H14429     9.92830   18.06903   48.55648
      O    O14430     8.35071    8.88124   52.33409
      H    H14431     7.64233    9.34987   52.77545
      H    H14432     8.63516    8.22344   52.96861
      O    O14433     9.97631   10.30091   60.33334
      H    H14434    10.47483   10.77549   60.99853
      H    H14435    10.11860    9.37726   60.54035
      O    O14436    12.38226    5.60630   53.77367
      H    H14437    12.25904    5.62492   52.82462
      H    H14438    13.33071    5.65420   53.89351
      O    O14439     9.46994   20.84183   53.04647
      H    H14440     9.72409   20.80397   52.12440
      H    H14441     8.52118   20.71517   53.03929
      O    O14442     6.55422    7.18974   49.70916
      H    H14443     7.40327    7.62676   49.64318
      H    H14444     6.18734    7.50177   50.53637
      O    O14445    17.18299    6.51770   61.17618
      H    H14446    16.68035    7.25824   61.51556
      H    H14447    17.99866    6.90610   60.85986
      O    O14448    15.47519   11.76102   54.62232
      H    H14449    14.53421   11.77604   54.79709
      H    H14450    15.78960   10.97462   55.06835
      O    O14451     5.45336   13.44298   48.18271
      H    H14452     6.21969   13.33112   48.74526
      H    H14453     5.53083   12.74678   47.53039
      O    O14454     4.14803   10.87549   48.86600
      H    H14455     4.22839    9.92824   48.97774
      H    H14456     5.04001   11.20618   48.97207
      O    O14457    17.47775   18.93191   56.29774
      H    H14458    17.60249   19.75502   56.77013
      H    H14459    18.34431   18.72098   55.95016
      O    O14460     4.94951   21.02503   55.96946
      H    H14461     5.68575   20.47657   56.24031
      H    H14462     5.33360   21.89063   55.83006
      O    O14463     1.83405   17.09238   51.84361
      H    H14464     0.90803   17.33450   51.83415
      H    H14465     2.29970   17.91981   51.72208
      O    O14466     3.95533   20.20963   65.15802
      H    H14467     4.75661   20.53084   65.57156
      H    H14468     3.44052   19.84919   65.88001
      O    O14469     8.05974   20.19806   47.79201
      H    H14470     8.85260   20.48694   47.34019
      H    H14471     7.54017   19.76727   47.11326
      O    O14472    12.79180   16.31762   65.10556
      H    H14473    12.18561   16.34078   64.36513
      H    H14474    12.48721   15.58592   65.64228
      O    O14475    14.22183   20.04565   63.71650
      H    H14476    15.17401   19.96145   63.66652
      H    H14477    14.07466   20.70982   64.38988
      O    O14478    17.11275   19.42507   49.21569
      H    H14479    16.82690   19.01158   48.40111
      H    H14480    16.91471   20.35384   49.09574
      O    O14481     1.67511   12.69698   64.10162
      H    H14482     2.17902   12.11771   64.67324
      H    H14483     0.93586   12.98100   64.63926
      O    O14484     8.57748   15.41840   47.65625
      H    H14485     8.47254   14.80363   48.38239
      H    H14486     8.40990   14.89499   46.87255
      O    O14487     8.72891   14.10408   63.63517
      H    H14488     7.96348   14.67258   63.55064
      H    H14489     8.91050   13.81170   62.74200
      O    O14490    15.87124   15.83461   64.19267
      H    H14491    16.61219   16.17219   63.68942
      H    H14492    15.10851   16.00382   63.63965
      O    O14493     3.70742   10.83994   64.99663
      H    H14494     3.74796   10.54133   65.90515
      H    H14495     4.56197   11.24070   64.83738
      O    O14496     7.48526   13.43949   50.15698
      H    H14497     7.90690   13.27348   51.00012
      H    H14498     7.61035   12.62952   49.66249
      O    O14499     5.64800    9.41915   62.96408
      H    H14500     5.11765    8.92824   62.33641
      H    H14501     6.31681    9.84757   62.42987
      O    O14502     9.99803   12.46325   47.40469
      H    H14503    10.51859   11.74816   47.03880
      H    H14504    10.64487   13.10184   47.70474
      O    O14505    14.54581   13.88609   62.72820
      H    H14506    14.95991   14.04060   63.57724
      H    H14507    13.61091   14.01162   62.89077
      O    O14508    15.01803   11.22571   64.73211
      H    H14509    15.60010   10.47094   64.64416
      H    H14510    15.19420   11.75645   63.95526
      O    O14511     6.13523    6.38539   63.04381
      H    H14512     6.04092    5.76746   62.31889
      H    H14513     5.55497    7.11201   62.81680
      O    O14514     8.90138    4.94271   60.07654
      H    H14515     8.45311    4.96514   59.23110
      H    H14516     8.26790    4.54461   60.67357
      O    O14517     9.30733   13.83814   60.69779
      H    H14518     9.72614   14.68142   60.52541
      H    H14519     8.38820   13.97535   60.46847
      O    O14520    11.64372   11.56976   62.08157
      H    H14521    11.76334   10.97387   62.82106
      H    H14522    12.50312   11.60673   61.66170
      O    O14523    13.98251   12.12348   60.65782
      H    H14524    13.45603   12.64774   60.05434
      H    H14525    14.32565   12.75622   61.28880
      O    O14526     6.38115    9.51282   47.10279
      H    H14527     6.18006    8.64955   47.46413
      H    H14528     6.21036    9.42615   46.16495
      O    O14529     7.15807   20.14344   61.81356
      H    H14530     6.62018   20.86805   61.49443
      H    H14531     7.41147   19.66648   61.02330
      O    O14532     8.41060    8.11190   63.33915
      H    H14533     9.00057    7.80348   64.02694
      H    H14534     7.59262    7.63987   63.49514
      O    O14535    13.22994    7.72848   63.57246
      H    H14536    12.54149    7.06663   63.50746
      H    H14537    13.95054    7.28230   64.01730
      O    O14538    13.85998    4.32364   49.63148
      H    H14539    14.14021    3.48043   49.98742
      H    H14540    13.08656    4.55595   50.14536
      O    O14541     5.17943    6.61288   47.09058
      H    H14542     5.48202    6.61962   46.18250
      H    H14543     5.91889    6.26266   47.58735
      O    O14544    10.01430   21.37856   62.07223
      H    H14545     9.94017   22.28208   62.37946
      H    H14546     9.11218   21.05975   62.04443
      O    O14547     8.39792    5.55634   48.07620
      H    H14548     8.05012    4.87874   47.49645
      H    H14549     8.59920    5.09529   48.89054
      O    O14550    10.56283   20.54442   49.69486
      H    H14551    11.45791   20.88291   49.71674
      H    H14552    10.59459   19.82236   49.06729
      O    O14553     4.20244   15.91712   47.92356
      H    H14554     4.63993   16.46009   48.57932
      H    H14555     4.68722   15.09182   47.93320
      O    O14556     1.41702   18.70602   55.37559
      H    H14557     1.74733   17.83813   55.14345
      H    H14558     1.84612   18.91188   56.20608
      O    O14559     6.01322   17.03692   53.03579
      H    H14560     5.71277   16.91342   53.93618
      H    H14561     5.90697   16.17778   52.62736
      O    O14562     1.90605   19.57308   58.11375
      H    H14563     1.46914   19.75316   58.94617
      H    H14564     2.47381   20.33054   57.97192
      O    O14565    17.54226   19.07478   62.40148
      H    H14566    16.94246   19.13404   61.65787
      H    H14567    17.67165   18.13528   62.53117
      O    O14568    18.78241   16.81656   47.73845
      H    H14569    17.95170   16.88423   48.20918
      H    H14570    18.95959   17.70698   47.43514
      O    O14571    18.23805   13.56131   50.24187
      H    H14572    18.99995   14.13098   50.34784
      H    H14573    18.25349   12.99403   51.01270
      O    O14574     1.73849   12.08511   54.47264
      H    H14575     1.08337   11.81627   53.82861
      H    H14576     2.57628   11.97555   54.02284
      O    O14577    19.24405   14.41632   55.08607
      H    H14578    19.61493   13.63305   54.67966
      H    H14579    19.88424   15.10523   54.90780
      O    O14580    16.22743   15.79998   60.49910
      H    H14581    15.41341   16.22970   60.76168
      H    H14582    16.63485   16.41182   59.88600
      O    O14583    14.68753    6.87923   48.69449
      H    H14584    15.10602    6.69233   47.85415
      H    H14585    14.38114    6.02714   49.00478
      O    O14586    18.18651   11.79165   52.39207
      H    H14587    17.81087   11.02444   51.96020
      H    H14588    17.45682   12.17392   52.87956
      O    O14589     2.77608   12.47036   59.01297
      H    H14590     3.14339   12.38310   59.89258
      H    H14591     2.20716   11.70702   58.91366
      O    O14592    17.57647   10.93880   62.02602
      H    H14593    17.34508   10.71008   61.12582
      H    H14594    17.83692   11.85876   61.98051
      O    O14595     2.32768    9.38127   62.91882
      H    H14596     1.43329    9.34795   63.25819
      H    H14597     2.86744    9.57995   63.68394
      O    O14598    16.01527    6.16444   64.80399
      H    H14599    16.89229    6.17278   65.18739
      H    H14600    16.02736    5.42753   64.19323
      O    O14601     0.95230    9.29500   50.41517
      H    H14602     0.04870    9.55802   50.24034
      H    H14603     1.43636    9.56612   49.63517
      O    O14604    17.46160   10.01740   55.69279
      H    H14605    17.98535    9.52366   55.06181
      H    H14606    18.04754   10.15243   56.43755
      O    O14607    17.64057   10.10138   59.21475
      H    H14608    16.69084   10.06774   59.32925
      H    H14609    17.82187   11.01140   58.97972
      O    O14610     3.49502    8.35155   48.32461
      H    H14611     4.20419    7.92987   47.83934
      H    H14612     2.77901    8.41908   47.69295
      O    O14613     3.14243    4.40549   47.36488
      H    H14614     3.86525    4.94638   47.68300
      H    H14615     3.41489    4.13183   46.48903
      O    O14616    16.95160    9.27473   51.63203
      H    H14617    17.44751    9.04182   52.41692
      H    H14618    16.75321    8.43592   51.21580
      O    O14619     2.83165    3.65610   57.26714
      H    H14620     3.47927    3.10584   56.82665
      H    H14621     3.25184    3.91042   58.08872
      O    O14622    18.38031    7.91083   54.16580
      H    H14623    18.27024    7.75643   55.10403
      H    H14624    19.14107    7.38292   53.92334
      O    O14625    16.72689    3.85024   60.62410
      H    H14626    17.36411    4.46365   60.99002
      H    H14627    16.87438    3.88631   59.67902
      O    O14628    19.26934    5.74162   47.40642
      H    H14629    20.19427    5.60974   47.19824
      H    H14630    19.24692    5.82090   48.36006
      O    O14631    19.34319    6.51269   50.03209
      H    H14632    18.54834    6.44720   50.56138
      H    H14633    19.54752    7.44775   50.02062
      O    O14634    16.28503   20.55184   54.02593
      H    H14635    16.88094   20.23030   53.34937
      H    H14636    16.54285   20.07902   54.81725
      O    O14637     2.58485    3.81167   60.00967
      H    H14638     2.23633    4.26805   60.77549
      H    H14639     2.25362    2.91738   60.09191
      O    O14640     4.19129   16.98363   64.17499
      H    H14641     4.14825   16.61292   65.05643
      H    H14642     4.32239   17.92139   64.31517
      O    O14643     7.89189   18.53959   59.77596
      H    H14644     7.65103   18.80705   58.88901
      H    H14645     8.83216   18.71016   59.83105
      O    O14646    10.09733    5.00286   63.53161
      H    H14647    10.03622    5.59504   64.28115
      H    H14648    11.03737    4.89546   63.38664
      O    O14649    12.73479    4.65987   63.17084
      H    H14650    13.34883    4.97779   62.50895
      H    H14651    13.27975    4.17472   63.79043
      O    O14652    19.15231   20.55903   60.57702
      H    H14653    18.65814   20.95592   59.85974
      H    H14654    18.54364   19.93395   60.97075
      O    O14655     3.25692    3.33929   63.28475
      H    H14656     3.80522    3.15810   62.52136
      H    H14657     3.32245    2.54870   63.82038
      O    O14658     4.03009   19.92986   61.29477
      H    H14659     3.43612   19.79833   62.03377
      H    H14660     4.02248   19.09367   60.82898
      O    O14661    13.47559    3.22308   59.49777
      H    H14662    12.60158    3.55659   59.29506
      H    H14663    13.36667    2.75040   60.32296
      O    O14664    14.38279    5.43017   60.88194
      H    H14665    14.05413    4.61534   60.50211
      H    H14666    15.33102    5.38715   60.75851
      O    O14667    16.83625   21.20137   57.85570
      H    H14668    16.37655   21.95295   57.48150
      H    H14669    16.20750   20.48202   57.79718
      O    O14670     3.66132   17.29569   60.24557
      H    H14671     2.93472   16.67622   60.17817
      H    H14672     3.72223   17.68976   59.37538
      O    O14673     7.26583   19.51019   57.03051
      H    H14674     7.78233   18.89893   56.50534
      H    H14675     7.91556   20.01307   57.52161
      O    O14676    10.00538   20.40104   57.85741
      H    H14677    10.29316   20.14647   56.98071
      H    H14678    10.51770   19.84878   58.44797
      O    O14679    11.22308    4.14006   58.43706
      H    H14680    10.44026    4.61461   58.71674
      H    H14681    10.92937    3.23555   58.32838
      O    O14682    15.77518    4.84237   56.48197
      H    H14683    16.21599    4.78688   55.63413
      H    H14684    15.50594    5.75817   56.55299
      O    O14685    17.63904    4.47390   54.49285
      H    H14686    17.57788    3.53002   54.34595
      H    H14687    18.41824    4.58191   55.03820
      O    O14688     1.94432   20.61313   53.45525
      H    H14689     1.77652   19.98020   54.15344
      H    H14690     1.07777   20.81907   53.10467
      O    O14691     2.56712    4.44481   50.95843
      H    H14692     3.32505    4.55770   50.38484
      H    H14693     2.10483    5.28173   50.91278
      O    O14694     9.10850    6.55874   53.94866
      H    H14695     8.29595    6.18443   53.60825
      H    H14696     9.61266    5.80325   54.25078
      O    O14697    13.61100    3.22298   55.18697
      H    H14698    14.21393    3.79500   55.66182
      H    H14699    12.87030    3.78693   54.96436
      O    O14700    16.75446    3.62514   50.46100
      H    H14701    16.94952    4.52348   50.72774
      H    H14702    15.96744    3.39385   50.95429
      O    O14703     3.55059   19.30646   50.90026
      H    H14704     3.02535   19.68726   50.19646
      H    H14705     3.47504   19.93153   51.62123
      O    O14706     4.93963    4.97122   49.49863
      H    H14707     5.46891    4.18420   49.36942
      H    H14708     5.57246    5.65034   49.73218
      O    O14709     7.13342    4.70873   52.55317
      H    H14710     6.50369    4.00746   52.72018
      H    H14711     6.59393    5.46914   52.33648
      O    O14712    10.07261   21.32265   65.22423
      H    H14713    10.99934   21.08708   65.26783
      H    H14714    10.05765   22.14985   64.74283
      O    O14715    18.30712   20.86521   52.22165
      H    H14716    18.48234   20.17898   51.57775
      H    H14717    17.60927   21.38992   51.82932
      O    O14718     7.25897    3.98713   64.98842
      H    H14719     6.97740    4.49049   64.22450
      H    H14720     7.64094    3.18930   64.62263
      O    O14721     6.14988   21.25469   49.77519
      H    H14722     6.88176   20.97062   49.22757
      H    H14723     6.40925   21.01602   50.66512
      O    O14724     5.31136   17.37117   49.77982
      H    H14725     4.68225   17.83968   50.32840
      H    H14726     5.42614   16.52609   50.21444
      O    O14727    13.86052    3.40249   65.56646
      H    H14728    13.74706    3.72195   66.46162
      H    H14729    14.67749    3.80374   65.27019
      O    O14730    16.64037   20.54964   65.04833
      H    H14731    17.43290   20.05456   64.84093
      H    H14732    16.93368   21.22865   65.65589
      O    O14733    31.54068   11.42173   54.70429
      H    H14734    31.46009   10.50719   54.43346
      H    H14735    31.12713   11.91844   53.99826
      O    O14736    29.67249   13.19964   56.58521
      H    H14737    28.89670   12.71968   56.87507
      H    H14738    30.32378   12.52020   56.41083
      O    O14739    23.68907   13.51162   57.46279
      H    H14740    22.85756   13.25649   57.86244
      H    H14741    24.29717   13.58269   58.19858
      O    O14742    33.69323   17.60565   55.36513
      H    H14743    33.23138   16.83438   55.69384
      H    H14744    34.50579   17.63226   55.87037
      O    O14745    23.66920   17.54563   57.65859
      H    H14746    23.97200   16.65540   57.47961
      H    H14747    24.41356   18.10265   57.43082
      O    O14748    22.09827    8.47181   51.24703
      H    H14749    21.20994    8.81340   51.14502
      H    H14750    22.38238    8.27184   50.35511
      O    O14751    20.06157   11.07237   57.13100
      H    H14752    20.63318   10.30459   57.13136
      H    H14753    20.06172   11.37125   56.22166
      O    O14754    29.91956   19.89146   54.98553
      H    H14755    29.30071   20.34721   54.41497
      H    H14756    30.77474   20.04660   54.58450
      O    O14757    29.11339   15.87535   56.59223
      H    H14758    29.04421   14.93435   56.43114
      H    H14759    29.87537   15.96550   57.16449
      O    O14760    21.30405    6.48081   58.91789
      H    H14761    21.12434    5.58338   59.19817
      H    H14762    20.90206    7.02799   59.59259
      O    O14763    30.14390    8.68239   56.81912
      H    H14764    30.52039    7.80958   56.70649
      H    H14765    30.04585    9.01826   55.92817
      O    O14766    24.27440    7.05496   52.28087
      H    H14767    24.38108    7.95533   52.58774
      H    H14768    23.36364    7.00675   51.99033
      O    O14769    33.92632    6.17744   53.75196
      H    H14770    34.74728    5.68709   53.79451
      H    H14771    33.95972    6.76720   54.50514
      O    O14772    21.92272    8.97686   57.52613
      H    H14773    22.60373    9.24069   58.14487
      H    H14774    21.60753    8.13694   57.85993
      O    O14775    38.21627    8.19411   60.31632
      H    H14776    37.51149    8.58228   59.79783
      H    H14777    38.48206    8.88914   60.91841
      O    O14778    24.39879    4.66345   60.87973
      H    H14779    24.40063    5.18069   60.07432
      H    H14780    23.56922    4.18647   60.85672
      O    O14781    30.78590   14.77538   52.37872
      H    H14782    30.16762   15.24032   51.81499
      H    H14783    31.29822   15.46813   52.79567
      O    O14784    25.64907   14.30297   59.05708
      H    H14785    25.31601   14.92986   59.69918
      H    H14786    25.82574   14.82915   58.27724
      O    O14787    34.16246    8.11747   56.52471
      H    H14788    33.45802    8.40596   57.10502
      H    H14789    34.52368    8.92749   56.16467
      O    O14790    24.08032    6.37444   58.88677
      H    H14791    24.42200    7.21865   58.59216
      H    H14792    23.14190    6.52282   59.00331
      O    O14793    24.86098   16.27105   60.87200
      H    H14794    25.47838   16.94615   60.59044
      H    H14795    24.00029   16.67984   60.78075
      O    O14796    20.15422   15.46103   49.75268
      H    H14797    19.77701   15.94974   49.02117
      H    H14798    20.41152   16.13356   50.38333
      O    O14799    35.77874   17.73499   58.78746
      H    H14800    35.09509   18.40490   58.77913
      H    H14801    36.31817   17.93305   58.02195
      O    O14802    37.23116    7.56295   56.91563
      H    H14803    36.28365    7.59685   57.04718
      H    H14804    37.55615    8.37685   57.30057
      O    O14805    27.76311    3.86267   55.21123
      H    H14806    28.07061    3.30736   54.49478
      H    H14807    26.83318    3.99712   55.02853
      O    O14808    33.31462   19.57940   57.50198
      H    H14809    33.32733   19.17563   56.63420
      H    H14810    32.76214   20.35413   57.39812
      O    O14811    34.60916   16.30102   52.59099
      H    H14812    34.49879   15.35846   52.71594
      H    H14813    34.60598   16.66259   53.47727
      O    O14814    32.71316   14.48238   58.83024
      H    H14815    33.13004   14.26840   57.99558
      H    H14816    33.43714   14.73966   59.40110
      O    O14817    30.15119   11.92755   51.94724
      H    H14818    29.22411   11.86129   52.17609
      H    H14819    30.30367   12.86557   51.83277
      O    O14820    30.13809    8.19925   48.94396
      H    H14821    29.19846    8.36065   49.02921
      H    H14822    30.45642    8.91782   48.39756
      O    O14823    36.65937   12.88111   58.92186
      H    H14824    35.83123   12.95042   58.44688
      H    H14825    37.25442   13.46654   58.45345
      O    O14826    34.18091   13.48958   52.45077
      H    H14827    33.56216   13.15154   51.80340
      H    H14828    34.16336   12.84556   53.15869
      O    O14829    33.62357    9.66804   59.86735
      H    H14830    33.21069   10.49341   60.12135
      H    H14831    32.89117    9.08254   59.67499
      O    O14832    24.46971    9.22835   58.50912
      H    H14833    25.02117    9.33788   57.73445
      H    H14834    24.98406    9.60211   59.22464
      O    O14835    34.31358   19.71397   60.55545
      H    H14836    33.83664   20.52119   60.36271
      H    H14837    33.62976   19.06180   60.70807
      O    O14838    25.31686   15.87895   63.54392
      H    H14839    24.41972   16.10295   63.79126
      H    H14840    25.34215   16.00245   62.59506
      O    O14841    32.35738   12.72827   49.45804
      H    H14842    32.79671   11.89051   49.31183
      H    H14843    33.07023   13.36121   49.54446
      O    O14844    24.14398   12.75029   62.11965
      H    H14845    24.00476   13.62257   62.48839
      H    H14846    23.26212   12.40757   61.97445
      O    O14847    30.46692   17.66787   53.42617
      H    H14848    30.90651   18.41031   53.01171
      H    H14849    30.40561   17.91053   54.35006
      O    O14850    25.94202   18.69246   64.32817
      H    H14851    25.91356   19.09675   63.46101
      H    H14852    25.77852   17.76349   64.16533
      O    O14853    35.93910    3.98255   47.77215
      H    H14854    35.62636    4.07523   48.67205
      H    H14855    36.70035    4.56065   47.72189
      O    O14856    22.45731   11.34853   52.22988
      H    H14857    22.33707   12.07474   51.61801
      H    H14858    22.14740   10.57882   51.75267
      O    O14859    37.89350   19.47517   65.62459
      H    H14860    38.36947   19.95345   66.30349
      H    H14861    38.51422   19.40691   64.89914
      O    O14862    20.09585   14.52004   58.03675
      H    H14863    20.17389   14.65492   57.09232
      H    H14864    20.71002   13.81163   58.22956
      O    O14865    21.34061   16.22006   54.44736
      H    H14866    20.93342   16.36152   53.59272
      H    H14867    22.23191   15.93608   54.24448
      O    O14868    37.29683   16.66645   62.78459
      H    H14869    37.42313   16.42764   61.86631
      H    H14870    37.33896   15.83490   63.25680
      O    O14871    31.15850   20.36925   61.35407
      H    H14872    31.67297   20.28005   62.15631
      H    H14873    30.31541   20.71522   61.64686
      O    O14874    33.13394   20.65478   50.78247
      H    H14875    32.97405   20.36508   51.68065
      H    H14876    32.96861   19.87880   50.24699
      O    O14877    32.83655   18.16354   49.34227
      H    H14878    32.14307   18.16127   48.68250
      H    H14879    33.57884   17.73947   48.91169
      O    O14880    32.40155   19.78981   53.41712
      H    H14881    32.85724   19.00875   53.73098
      H    H14882    32.74080   20.50049   53.96124
      O    O14883    37.14923    8.71970   63.74956
      H    H14884    36.53365    9.22766   63.22111
      H    H14885    36.82887    7.81953   63.69216
      O    O14886    20.15180   15.56146   60.57619
      H    H14887    20.31491   15.09199   59.75813
      H    H14888    20.61705   15.05381   61.24108
      O    O14889    24.92368    4.69203   55.61225
      H    H14890    24.48049    5.47299   55.28070
      H    H14891    25.48218    5.01502   56.31934
      O    O14892    29.21066    7.55889   61.21578
      H    H14893    28.74860    7.76719   62.02777
      H    H14894    28.80847    6.74482   60.91285
      O    O14895    34.21111    8.77978   62.34545
      H    H14896    33.36047    8.48036   62.66635
      H    H14897    34.05129    9.02398   61.43383
      O    O14898    31.30608   10.27996   64.44533
      H    H14899    31.63142    9.44633   64.10555
      H    H14900    32.09411   10.80281   64.59316
      O    O14901    28.03956    4.31310   50.49283
      H    H14902    27.41498    4.30909   51.21816
      H    H14903    27.95257    3.44620   50.09643
      O    O14904    26.96127    5.23677   57.47121
      H    H14905    27.25850    6.14305   57.39041
      H    H14906    27.50982    4.74864   56.85717
      O    O14907    31.94488    9.82173   51.93944
      H    H14908    31.34577   10.54531   51.75580
      H    H14909    32.49284    9.75941   51.15708
      O    O14910    27.15502   10.71395   64.00640
      H    H14911    27.05938    9.77342   63.85644
      H    H14912    27.99822   10.93546   63.61121
      O    O14913    30.55136    8.45808   53.96977
      H    H14914    30.94432    8.77530   53.15664
      H    H14915    30.91305    7.57927   54.08422
      O    O14916    22.28608    7.12532   62.15978
      H    H14917    21.89241    7.97284   62.36706
      H    H14918    21.59792    6.48795   62.35064
      O    O14919    28.86058    7.20881   65.22945
      H    H14920    28.17041    7.01603   65.86406
      H    H14921    29.60381    7.49228   65.76188
      O    O14922    19.58778    5.04816   56.19279
      H    H14923    19.29909    5.61845   56.90528
      H    H14924    20.33236    4.56861   56.55591
      O    O14925    19.77480    8.99017   47.40306
      H    H14926    19.69227    9.93325   47.54456
      H    H14927    19.42311    8.84766   46.52429
      O    O14928    31.13688   11.04866   58.06484
      H    H14929    30.40499   11.55734   58.41385
      H    H14930    30.73931   10.23165   57.76372
      O    O14931    27.57462    7.72408   56.47009
      H    H14932    27.57822    7.28307   55.62055
      H    H14933    28.46973    8.04581   56.57728
      O    O14934    23.42485    7.60673   55.42951
      H    H14935    23.08486    8.08425   56.18622
      H    H14936    22.66259    7.15324   55.06962
      O    O14937    27.63663    8.72528   49.46077
      H    H14938    27.75791    8.68393   50.40935
      H    H14939    27.25148    9.58770   49.30544
      O    O14940    31.59947    6.50202   57.47714
      H    H14941    31.61674    6.95289   58.32132
      H    H14942    31.35103    5.60259   57.69048
      O    O14943    35.02654    3.91524   63.31578
      H    H14944    35.35112    3.18421   63.84157
      H    H14945    35.06219    3.59661   62.41388
      O    O14946    21.72570   14.93660   62.73577
      H    H14947    21.34118   14.29597   63.33407
      H    H14948    22.03692   15.64021   63.30525
      O    O14949    27.87541   11.78425   58.21663
      H    H14950    28.24243   11.31011   58.96277
      H    H14951    27.68592   12.65841   58.55747
      O    O14952    20.73946    6.52862   54.34598
      H    H14953    20.45415    6.16419   55.18384
      H    H14954    20.67735    5.79667   53.73230
      O    O14955    25.66535   10.82512   60.53506
      H    H14956    25.36106   11.70432   60.76009
      H    H14957    26.62000   10.88510   60.57080
      O    O14958    34.95233   14.02775   56.92438
      H    H14959    35.67224   14.52328   56.53399
      H    H14960    34.75051   13.34954   56.27977
      O    O14961    30.41332    5.42155   51.06732
      H    H14962    29.59978    4.92287   50.99185
      H    H14963    30.21952    6.26137   50.65095
      O    O14964    30.33421   14.09866   62.81128
      H    H14965    30.26794   13.17823   62.55704
      H    H14966    29.70472   14.19620   63.52574
      O    O14967    33.12816    9.79351   49.36353
      H    H14968    34.01612   10.10524   49.18867
      H    H14969    33.09867    8.92074   48.97159
      O    O14970    29.12422   15.96588   50.04235
      H    H14971    29.46579   16.71011   49.54668
      H    H14972    28.29549   16.27900   50.40483
      O    O14973    21.72172   11.66539   61.68219
      H    H14974    21.36322   12.33078   62.26953
      H    H14975    21.42718   10.83375   62.05345
      O    O14976    24.92304   12.12382   64.56615
      H    H14977    24.62305   12.26953   63.66893
      H    H14978    25.69416   11.56435   64.47349
      O    O14979    30.26588   16.92072   62.56166
      H    H14980    30.28033   15.98881   62.34355
      H    H14981    29.55839   17.00669   63.20064
      O    O14982    35.39959   11.10470   48.83152
      H    H14983    35.31596   11.53612   47.98116
      H    H14984    36.11901   11.56453   49.26420
      O    O14985    36.47700   13.56145   61.90852
      H    H14986    35.75182   14.15433   61.71146
      H    H14987    37.00455   13.55380   61.10985
      O    O14988    36.42831   17.95892   51.55973
      H    H14989    35.78593   17.30449   51.83411
      H    H14990    36.04138   18.36443   50.78380
      O    O14991    32.00696   15.28747   55.40690
      H    H14992    32.35934   14.69028   54.74704
      H    H14993    31.12319   14.96189   55.57773
      O    O14994    20.23253   11.66452   48.30565
      H    H14995    21.10201   11.94700   48.58924
      H    H14996    19.74156   12.47811   48.19053
      O    O14997    29.69927   18.56247   59.65571
      H    H14998    30.34349   18.76841   60.33305
      H    H14999    30.06221   17.80131   59.20279
      O    O15000    23.29719    3.39560   52.89873
      H    H15001    23.16865    3.38739   53.84722
      H    H15002    22.47339    3.73391   52.54783
      O    O15003    30.97248   16.56571   58.37345
      H    H15004    31.61470   15.86502   58.48667
      H    H15005    31.49741   17.34555   58.19314
      O    O15006    34.81805   16.85057   48.09737
      H    H15007    34.59181   16.13361   48.68983
      H    H15008    34.42767   16.60181   47.25954
      O    O15009    32.74624   17.36520   61.57706
      H    H15010    33.08186   17.95187   62.25485
      H    H15011    31.82627   17.23447   61.80684
      O    O15012    20.29658    5.15472   62.35940
      H    H15013    19.58243    5.35441   62.96466
      H    H15014    20.71608    4.37867   62.73088
      O    O15015    34.39968   14.76776   49.75878
      H    H15016    34.11185   15.22903   50.54657
      H    H15017    35.19489   14.30754   50.02721
      O    O15018    20.58384   19.14274   63.34605
      H    H15019    20.69295   18.20222   63.20559
      H    H15020    19.93190   19.40822   62.69743
      O    O15021    28.57510   17.41433   64.74587
      H    H15022    28.25479   16.69526   65.29044
      H    H15023    27.90093   18.08984   64.81947
      O    O15024    31.79046    7.64695   60.10955
      H    H15025    32.15854    6.82647   60.43750
      H    H15026    30.93028    7.70714   60.52511
      O    O15027    35.15666    6.60264   50.91830
      H    H15028    34.52798    6.70721   50.20413
      H    H15029    34.66185    6.82232   51.70769
      O    O15030    29.60248   18.32320   48.35170
      H    H15031    29.70367   18.11960   47.42190
      H    H15032    28.70265   18.06903   48.55648
      O    O15033    28.75066   10.30091   60.33334
      H    H15034    29.24918   10.77549   60.99853
      H    H15035    28.89295    9.37726   60.54035
      O    O15036    31.15661    5.60630   53.77367
      H    H15037    31.03339    5.62492   52.82462
      H    H15038    32.10506    5.65420   53.89351
      O    O15039    28.24429   20.84183   53.04647
      H    H15040    28.49844   20.80397   52.12440
      H    H15041    27.29553   20.71517   53.03929
      O    O15042    25.32857    7.18974   49.70916
      H    H15043    26.17762    7.62676   49.64318
      H    H15044    24.96169    7.50177   50.53637
      O    O15045    35.95734    6.51770   61.17618
      H    H15046    35.45470    7.25824   61.51556
      H    H15047    36.77301    6.90610   60.85986
      O    O15048    34.24954   11.76102   54.62232
      H    H15049    33.30856   11.77604   54.79709
      H    H15050    34.56395   10.97462   55.06835
      O    O15051    36.25210   18.93191   56.29774
      H    H15052    36.37684   19.75502   56.77013
      H    H15053    37.11866   18.72098   55.95016
      O    O15054    23.72386   21.02503   55.96946
      H    H15055    24.46010   20.47657   56.24031
      H    H15056    24.10795   21.89063   55.83006
      O    O15057    20.60840   17.09238   51.84361
      H    H15058    19.68238   17.33450   51.83415
      H    H15059    21.07405   17.91981   51.72208
      O    O15060    22.72968   20.20963   65.15802
      H    H15061    23.53096   20.53084   65.57156
      H    H15062    22.21487   19.84919   65.88001
      O    O15063    31.56615   16.31762   65.10556
      H    H15064    30.95996   16.34078   64.36513
      H    H15065    31.26156   15.58592   65.64228
      O    O15066    32.99618   20.04565   63.71650
      H    H15067    33.94836   19.96145   63.66652
      H    H15068    32.84901   20.70982   64.38988
      O    O15069    35.88710   19.42507   49.21569
      H    H15070    35.60125   19.01158   48.40111
      H    H15071    35.68906   20.35384   49.09574
      O    O15072    20.44946   12.69698   64.10162
      H    H15073    20.95337   12.11771   64.67324
      H    H15074    19.71021   12.98100   64.63926
      O    O15075    27.50326   14.10408   63.63517
      H    H15076    26.73783   14.67258   63.55064
      H    H15077    27.68485   13.81170   62.74200
      O    O15078    30.59210   14.48040   48.26045
      H    H15079    30.04311   14.92733   48.90472
      H    H15080    31.21403   13.97533   48.78422
      O    O15081    34.64559   15.83461   64.19267
      H    H15082    35.38654   16.17219   63.68942
      H    H15083    33.88286   16.00382   63.63965
      O    O15084    22.48177   10.83994   64.99663
      H    H15085    22.52231   10.54133   65.90515
      H    H15086    23.33632   11.24070   64.83738
      O    O15087    24.42235    9.41915   62.96408
      H    H15088    23.89200    8.92824   62.33641
      H    H15089    25.09116    9.84757   62.42987
      O    O15090    28.77238   12.46325   47.40469
      H    H15091    29.29294   11.74816   47.03880
      H    H15092    29.41922   13.10184   47.70474
      O    O15093    33.32016   13.88609   62.72820
      H    H15094    33.73426   14.04060   63.57724
      H    H15095    32.38526   14.01162   62.89077
      O    O15096    33.79238   11.22571   64.73211
      H    H15097    34.37445   10.47094   64.64416
      H    H15098    33.96855   11.75645   63.95526
      O    O15099    24.90958    6.38539   63.04381
      H    H15100    24.81527    5.76746   62.31889
      H    H15101    24.32932    7.11201   62.81680
      O    O15102    27.67573    4.94271   60.07654
      H    H15103    27.22746    4.96514   59.23110
      H    H15104    27.04225    4.54461   60.67357
      O    O15105    28.08168   13.83814   60.69779
      H    H15106    28.50049   14.68142   60.52541
      H    H15107    27.16255   13.97535   60.46847
      O    O15108    30.41807   11.56976   62.08157
      H    H15109    30.53769   10.97387   62.82106
      H    H15110    31.27747   11.60673   61.66170
      O    O15111    32.75686   12.12348   60.65782
      H    H15112    32.23038   12.64774   60.05434
      H    H15113    33.10000   12.75622   61.28880
      O    O15114    25.93242   20.14344   61.81356
      H    H15115    25.39453   20.86805   61.49443
      H    H15116    26.18582   19.66648   61.02330
      O    O15117    27.18495    8.11190   63.33915
      H    H15118    27.77492    7.80348   64.02694
      H    H15119    26.36697    7.63987   63.49514
      O    O15120    32.00429    7.72848   63.57246
      H    H15121    31.31584    7.06663   63.50746
      H    H15122    32.72489    7.28230   64.01730
      O    O15123    32.63433    4.32364   49.63148
      H    H15124    32.91456    3.48043   49.98742
      H    H15125    31.86091    4.55595   50.14536
      O    O15126    23.95378    6.61288   47.09058
      H    H15127    24.25637    6.61962   46.18250
      H    H15128    24.69324    6.26266   47.58735
      O    O15129    28.78865   21.37856   62.07223
      H    H15130    28.71452   22.28208   62.37946
      H    H15131    27.88653   21.05975   62.04443
      O    O15132    27.17227    5.55634   48.07620
      H    H15133    26.82447    4.87874   47.49645
      H    H15134    27.37355    5.09529   48.89054
      O    O15135    29.33718   20.54442   49.69486
      H    H15136    30.23226   20.88291   49.71674
      H    H15137    29.36894   19.82236   49.06729
      O    O15138    20.19137   18.70602   55.37559
      H    H15139    20.52168   17.83813   55.14345
      H    H15140    20.62047   18.91188   56.20608
      O    O15141    20.68040   19.57308   58.11375
      H    H15142    20.24349   19.75316   58.94617
      H    H15143    21.24816   20.33054   57.97192
      O    O15144    36.31661   19.07478   62.40148
      H    H15145    35.71681   19.13404   61.65787
      H    H15146    36.44600   18.13528   62.53117
      O    O15147    37.55676   16.81656   47.73845
      H    H15148    36.72605   16.88423   48.20918
      H    H15149    37.73394   17.70698   47.43514
      O    O15150    37.01240   13.56131   50.24187
      H    H15151    37.77430   14.13098   50.34784
      H    H15152    37.02784   12.99403   51.01270
      O    O15153    20.51284   12.08511   54.47264
      H    H15154    19.85772   11.81627   53.82861
      H    H15155    21.35063   11.97555   54.02284
      O    O15156    38.01840   14.41632   55.08607
      H    H15157    38.38928   13.63305   54.67966
      H    H15158    38.65859   15.10523   54.90780
      O    O15159    35.00178   15.79998   60.49910
      H    H15160    34.18776   16.22970   60.76168
      H    H15161    35.40920   16.41182   59.88600
      O    O15162    37.06432   13.85475   47.39913
      H    H15163    37.33921   14.76264   47.27105
      H    H15164    36.87540   13.79100   48.33532
      O    O15165    33.46188    6.87923   48.69449
      H    H15166    33.88037    6.69233   47.85415
      H    H15167    33.15549    6.02714   49.00478
      O    O15168    36.96086   11.79165   52.39207
      H    H15169    36.58522   11.02444   51.96020
      H    H15170    36.23117   12.17392   52.87956
      O    O15171    21.55043   12.47036   59.01297
      H    H15172    21.91774   12.38310   59.89258
      H    H15173    20.98151   11.70702   58.91366
      O    O15174    36.35082   10.93880   62.02602
      H    H15175    36.11943   10.71008   61.12582
      H    H15176    36.61127   11.85876   61.98051
      O    O15177    21.10203    9.38127   62.91882
      H    H15178    20.20764    9.34795   63.25819
      H    H15179    21.64179    9.57995   63.68394
      O    O15180    34.78962    6.16444   64.80399
      H    H15181    35.66664    6.17278   65.18739
      H    H15182    34.80171    5.42753   64.19323
      O    O15183    19.72665    9.29500   50.41517
      H    H15184    18.82305    9.55802   50.24034
      H    H15185    20.21071    9.56612   49.63517
      O    O15186    36.23595   10.01740   55.69279
      H    H15187    36.75970    9.52366   55.06181
      H    H15188    36.82189   10.15243   56.43755
      O    O15189    36.41492   10.10138   59.21475
      H    H15190    35.46519   10.06774   59.32925
      H    H15191    36.59622   11.01140   58.97972
      O    O15192    22.26937    8.35155   48.32461
      H    H15193    22.97854    7.92987   47.83934
      H    H15194    21.55336    8.41908   47.69295
      O    O15195    21.91678    4.40549   47.36488
      H    H15196    22.63960    4.94638   47.68300
      H    H15197    22.18924    4.13183   46.48903
      O    O15198    35.72595    9.27473   51.63203
      H    H15199    36.22186    9.04182   52.41692
      H    H15200    35.52756    8.43592   51.21580
      O    O15201    21.60600    3.65610   57.26714
      H    H15202    22.25362    3.10584   56.82665
      H    H15203    22.02619    3.91042   58.08872
      O    O15204    37.15466    7.91083   54.16580
      H    H15205    37.04459    7.75643   55.10403
      H    H15206    37.91542    7.38292   53.92334
      O    O15207    35.50124    3.85024   60.62410
      H    H15208    36.13846    4.46365   60.99002
      H    H15209    35.64873    3.88631   59.67902
      O    O15210    38.04369    5.74162   47.40642
      H    H15211    38.96862    5.60974   47.19824
      H    H15212    38.02127    5.82090   48.36006
      O    O15213    38.11754    6.51269   50.03209
      H    H15214    37.32269    6.44720   50.56138
      H    H15215    38.32187    7.44775   50.02062
      O    O15216    35.05938   20.55184   54.02593
      H    H15217    35.65529   20.23030   53.34937
      H    H15218    35.31720   20.07902   54.81725
      O    O15219    21.35920    3.81167   60.00967
      H    H15220    21.01068    4.26805   60.77549
      H    H15221    21.02797    2.91738   60.09191
      O    O15222    22.96564   16.98363   64.17499
      H    H15223    22.92260   16.61292   65.05643
      H    H15224    23.09674   17.92139   64.31517
      O    O15225    26.66624   18.53959   59.77596
      H    H15226    26.42538   18.80705   58.88901
      H    H15227    27.60651   18.71016   59.83105
      O    O15228    28.87168    5.00286   63.53161
      H    H15229    28.81057    5.59504   64.28115
      H    H15230    29.81172    4.89546   63.38664
      O    O15231    31.50914    4.65987   63.17084
      H    H15232    32.12318    4.97779   62.50895
      H    H15233    32.05410    4.17472   63.79043
      O    O15234    37.92666   20.55903   60.57702
      H    H15235    37.43249   20.95592   59.85974
      H    H15236    37.31799   19.93395   60.97075
      O    O15237    22.03127    3.33929   63.28475
      H    H15238    22.57957    3.15810   62.52136
      H    H15239    22.09680    2.54870   63.82038
      O    O15240    22.80444   19.92986   61.29477
      H    H15241    22.21047   19.79833   62.03377
      H    H15242    22.79683   19.09367   60.82898
      O    O15243    32.24994    3.22308   59.49777
      H    H15244    31.37593    3.55659   59.29506
      H    H15245    32.14102    2.75040   60.32296
      O    O15246    33.15714    5.43017   60.88194
      H    H15247    32.82848    4.61534   60.50211
      H    H15248    34.10537    5.38715   60.75851
      O    O15249    35.61060   21.20137   57.85570
      H    H15250    35.15090   21.95295   57.48150
      H    H15251    34.98185   20.48202   57.79718
      O    O15252    22.43567   17.29569   60.24557
      H    H15253    21.70907   16.67622   60.17817
      H    H15254    22.49658   17.68976   59.37538
      O    O15255    26.04018   19.51019   57.03051
      H    H15256    26.55668   18.89893   56.50534
      H    H15257    26.68991   20.01307   57.52161
      O    O15258    28.77973   20.40104   57.85741
      H    H15259    29.06751   20.14647   56.98071
      H    H15260    29.29205   19.84878   58.44797
      O    O15261    29.99743    4.14006   58.43706
      H    H15262    29.21461    4.61461   58.71674
      H    H15263    29.70372    3.23555   58.32838
      O    O15264    34.54953    4.84237   56.48197
      H    H15265    34.99034    4.78688   55.63413
      H    H15266    34.28029    5.75817   56.55299
      O    O15267    36.41339    4.47390   54.49285
      H    H15268    36.35223    3.53002   54.34595
      H    H15269    37.19259    4.58191   55.03820
      O    O15270    20.71867   20.61313   53.45525
      H    H15271    20.55087   19.98020   54.15344
      H    H15272    19.85212   20.81907   53.10467
      O    O15273    21.34147    4.44481   50.95843
      H    H15274    22.09940    4.55770   50.38484
      H    H15275    20.87918    5.28173   50.91278
      O    O15276    27.88285    6.55874   53.94866
      H    H15277    27.07030    6.18443   53.60825
      H    H15278    28.38701    5.80325   54.25078
      O    O15279    32.38535    3.22298   55.18697
      H    H15280    32.98828    3.79500   55.66182
      H    H15281    31.64465    3.78693   54.96436
      O    O15282    35.52881    3.62514   50.46100
      H    H15283    35.72387    4.52348   50.72774
      H    H15284    34.74179    3.39385   50.95429
      O    O15285    23.71398    4.97122   49.49863
      H    H15286    24.24326    4.18420   49.36942
      H    H15287    24.34681    5.65034   49.73218
      O    O15288    25.90777    4.70873   52.55317
      H    H15289    25.27804    4.00746   52.72018
      H    H15290    25.36828    5.46914   52.33648
      O    O15291    28.84696   21.32265   65.22423
      H    H15292    29.77369   21.08708   65.26783
      H    H15293    28.83200   22.14985   64.74283
      O    O15294    37.08147   20.86521   52.22165
      H    H15295    37.25669   20.17898   51.57775
      H    H15296    36.38362   21.38992   51.82932
      O    O15297    26.03332    3.98713   64.98842
      H    H15298    25.75175    4.49049   64.22450
      H    H15299    26.41529    3.18930   64.62263
      O    O15300    32.63487    3.40249   65.56646
      H    H15301    32.52141    3.72195   66.46162
      H    H15302    33.45184    3.80374   65.27019
      O    O15303    35.41472   20.54964   65.04833
      H    H15304    36.20725   20.05456   64.84093
      H    H15305    35.70803   21.22865   65.65589
      O    O15306    -6.00802   30.19608   54.70429
      H    H15307    -6.08861   29.28154   54.43346
      H    H15308    -6.42157   30.69279   53.99826
      O    O15309    -7.87621   31.97399   56.58521
      H    H15310    -8.65200   31.49403   56.87507
      H    H15311    -7.22492   31.29455   56.41083
      O    O15312    -3.85547   36.38000   55.36513
      H    H15313    -4.31732   35.60873   55.69384
      H    H15314    -3.04291   36.40661   55.87037
      O    O15315    -7.62914   38.66581   54.98553
      H    H15316    -8.24799   39.12156   54.41497
      H    H15317    -6.77396   38.82095   54.58450
      O    O15318    -8.43531   34.64970   56.59223
      H    H15319    -8.50449   33.70870   56.43114
      H    H15320    -7.67333   34.73985   57.16449
      O    O15321    -7.40480   27.45674   56.81912
      H    H15322    -7.02831   26.58393   56.70649
      H    H15323    -7.50285   27.79261   55.92817
      O    O15324    -3.62238   24.95179   53.75196
      H    H15325    -2.80142   24.46144   53.79451
      H    H15326    -3.58898   25.54155   54.50514
      O    O15327     0.66757   26.96846   60.31632
      H    H15328    -0.03721   27.35663   59.79783
      H    H15329     0.93336   27.66349   60.91841
      O    O15330    -6.76280   33.54973   52.37872
      H    H15331    -7.38108   34.01467   51.81499
      H    H15332    -6.25048   34.24248   52.79567
      O    O15333    -3.38624   26.89182   56.52471
      H    H15334    -4.09068   27.18031   57.10502
      H    H15335    -3.02502   27.70184   56.16467
      O    O15336    -1.76996   36.50934   58.78746
      H    H15337    -2.45361   37.17925   58.77913
      H    H15338    -1.23053   36.70740   58.02195
      O    O15339    -0.31754   26.33730   56.91563
      H    H15340    -1.26505   26.37120   57.04718
      H    H15341     0.00745   27.15120   57.30057
      O    O15342    -4.23408   38.35375   57.50198
      H    H15343    -4.22137   37.94998   56.63420
      H    H15344    -4.78656   39.12848   57.39812
      O    O15345    -2.93954   35.07537   52.59099
      H    H15346    -3.04991   34.13281   52.71594
      H    H15347    -2.94272   35.43694   53.47727
      O    O15348    -4.83554   33.25673   58.83024
      H    H15349    -4.41866   33.04275   57.99558
      H    H15350    -4.11156   33.51401   59.40110
      O    O15351    -7.39751   30.70190   51.94724
      H    H15352    -8.32459   30.63564   52.17609
      H    H15353    -7.24503   31.63992   51.83277
      O    O15354    -7.41061   26.97360   48.94396
      H    H15355    -8.35024   27.13500   49.02921
      H    H15356    -7.09228   27.69217   48.39756
      O    O15357    -0.88933   31.65546   58.92186
      H    H15358    -1.71747   31.72477   58.44688
      H    H15359    -0.29428   32.24089   58.45345
      O    O15360    -3.36779   32.26393   52.45077
      H    H15361    -3.98654   31.92589   51.80340
      H    H15362    -3.38534   31.61991   53.15869
      O    O15363    -3.92513   28.44239   59.86735
      H    H15364    -4.33801   29.26776   60.12135
      H    H15365    -4.65753   27.85689   59.67499
      O    O15366    -3.23512   38.48832   60.55545
      H    H15367    -3.71206   39.29554   60.36271
      H    H15368    -3.91894   37.83615   60.70807
      O    O15369    -5.19132   31.50262   49.45804
      H    H15370    -4.75199   30.66486   49.31183
      H    H15371    -4.47847   32.13556   49.54446
      O    O15372    -7.08178   36.44222   53.42617
      H    H15373    -6.64219   37.18466   53.01171
      H    H15374    -7.14309   36.68488   54.35006
      O    O15375    -1.60960   22.75690   47.77215
      H    H15376    -1.92234   22.84958   48.67205
      H    H15377    -0.84835   23.33500   47.72189
      O    O15378     0.34480   38.24952   65.62459
      H    H15379     0.82077   38.72780   66.30349
      H    H15380     0.96552   38.18126   64.89914
      O    O15381    -0.25187   35.44080   62.78459
      H    H15382    -0.12557   35.20199   61.86631
      H    H15383    -0.20974   34.60925   63.25680
      O    O15384    -6.39020   39.14360   61.35407
      H    H15385    -5.87573   39.05440   62.15631
      H    H15386    -7.23329   39.48957   61.64686
      O    O15387    -4.41476   39.42913   50.78247
      H    H15388    -4.57465   39.13943   51.68065
      H    H15389    -4.58009   38.65315   50.24699
      O    O15390    -4.71215   36.93789   49.34227
      H    H15391    -5.40563   36.93562   48.68250
      H    H15392    -3.96986   36.51382   48.91169
      O    O15393    -5.14715   38.56416   53.41712
      H    H15394    -4.69146   37.78310   53.73098
      H    H15395    -4.80790   39.27484   53.96124
      O    O15396    -0.39947   27.49405   63.74956
      H    H15397    -1.01505   28.00201   63.22111
      H    H15398    -0.71983   26.59388   63.69216
      O    O15399    -8.33804   26.33324   61.21578
      H    H15400    -8.80010   26.54154   62.02777
      H    H15401    -8.74023   25.51917   60.91285
      O    O15402    -3.33759   27.55413   62.34545
      H    H15403    -4.18823   27.25471   62.66635
      H    H15404    -3.49741   27.79833   61.43383
      O    O15405    -6.24262   29.05431   64.44533
      H    H15406    -5.91728   28.22068   64.10555
      H    H15407    -5.45459   29.57716   64.59316
      O    O15408    -5.60382   28.59608   51.93944
      H    H15409    -6.20293   29.31966   51.75580
      H    H15410    -5.05586   28.53376   51.15708
      O    O15411    -6.99734   27.23243   53.96977
      H    H15412    -6.60438   27.54965   53.15664
      H    H15413    -6.63565   26.35362   54.08422
      O    O15414    -8.68812   25.98316   65.22945
      H    H15415    -9.37829   25.79038   65.86406
      H    H15416    -7.94489   26.26663   65.76188
      O    O15417    -6.41182   29.82301   58.06484
      H    H15418    -7.14371   30.33169   58.41385
      H    H15419    -6.80939   29.00600   57.76372
      O    O15420    -5.94923   25.27637   57.47714
      H    H15421    -5.93196   25.72724   58.32132
      H    H15422    -6.19767   24.37694   57.69048
      O    O15423    -2.52216   22.68959   63.31578
      H    H15424    -2.19758   21.95856   63.84157
      H    H15425    -2.48651   22.37096   62.41388
      O    O15426    -2.59637   32.80210   56.92438
      H    H15427    -1.87646   33.29763   56.53399
      H    H15428    -2.79819   32.12389   56.27977
      O    O15429    -7.13538   24.19590   51.06732
      H    H15430    -7.94892   23.69722   50.99185
      H    H15431    -7.32918   25.03572   50.65095
      O    O15432    -7.21449   32.87301   62.81128
      H    H15433    -7.28076   31.95258   62.55704
      H    H15434    -7.84398   32.97055   63.52574
      O    O15435    -4.42054   28.56786   49.36353
      H    H15436    -3.53258   28.87959   49.18867
      H    H15437    -4.45003   27.69509   48.97159
      O    O15438    -8.42448   34.74023   50.04235
      H    H15439    -8.08291   35.48446   49.54668
      H    H15440    -9.25321   35.05335   50.40483
      O    O15441    -7.28282   35.69507   62.56166
      H    H15442    -7.26837   34.76316   62.34355
      H    H15443    -7.99031   35.78104   63.20064
      O    O15444    -2.14911   29.87905   48.83152
      H    H15445    -2.23274   30.31047   47.98116
      H    H15446    -1.42969   30.33888   49.26420
      O    O15447    -1.07170   32.33580   61.90852
      H    H15448    -1.79688   32.92868   61.71146
      H    H15449    -0.54415   32.32815   61.10985
      O    O15450    -1.12039   36.73327   51.55973
      H    H15451    -1.76277   36.07884   51.83411
      H    H15452    -1.50732   37.13878   50.78380
      O    O15453    -5.54174   34.06182   55.40690
      H    H15454    -5.18936   33.46463   54.74704
      H    H15455    -6.42551   33.73624   55.57773
      O    O15456    -7.84943   37.33682   59.65571
      H    H15457    -7.20521   37.54276   60.33305
      H    H15458    -7.48649   36.57566   59.20279
      O    O15459    -6.57622   35.34006   58.37345
      H    H15460    -5.93400   34.63937   58.48667
      H    H15461    -6.05129   36.11990   58.19314
      O    O15462    -2.73065   35.62492   48.09737
      H    H15463    -2.95689   34.90796   48.68983
      H    H15464    -3.12103   35.37616   47.25954
      O    O15465    -4.80246   36.13955   61.57706
      H    H15466    -4.46684   36.72622   62.25485
      H    H15467    -5.72243   36.00882   61.80684
      O    O15468    -3.14902   33.54211   49.75878
      H    H15469    -3.43685   34.00338   50.54657
      H    H15470    -2.35381   33.08189   50.02721
      O    O15471    -5.75824   26.42130   60.10955
      H    H15472    -5.39016   25.60082   60.43750
      H    H15473    -6.61842   26.48149   60.52511
      O    O15474    -2.39204   25.37699   50.91830
      H    H15475    -3.02072   25.48156   50.20413
      H    H15476    -2.88685   25.59667   51.70769
      O    O15477    -7.94622   37.09755   48.35170
      H    H15478    -7.84503   36.89395   47.42190
      H    H15479    -8.84605   36.84338   48.55648
      O    O15480    -8.79804   29.07526   60.33334
      H    H15481    -8.29952   29.54984   60.99853
      H    H15482    -8.65575   28.15161   60.54035
      O    O15483    -6.39209   24.38065   53.77367
      H    H15484    -6.51531   24.39927   52.82462
      H    H15485    -5.44364   24.42855   53.89351
      O    O15486    -1.59136   25.29205   61.17618
      H    H15487    -2.09400   26.03259   61.51556
      H    H15488    -0.77569   25.68045   60.85986
      O    O15489    -3.29916   30.53537   54.62232
      H    H15490    -4.24014   30.55039   54.79709
      H    H15491    -2.98475   29.74897   55.06835
      O    O15492    -1.29660   37.70626   56.29774
      H    H15493    -1.17186   38.52937   56.77013
      H    H15494    -0.43004   37.49533   55.95016
      O    O15495    -5.98255   35.09197   65.10556
      H    H15496    -6.58874   35.11513   64.36513
      H    H15497    -6.28714   34.36027   65.64228
      O    O15498    -4.55252   38.82000   63.71650
      H    H15499    -3.60034   38.73580   63.66652
      H    H15500    -4.69969   39.48417   64.38988
      O    O15501    -1.66160   38.19942   49.21569
      H    H15502    -1.94745   37.78593   48.40111
      H    H15503    -1.85964   39.12819   49.09574
      O    O15504    -6.95660   33.25475   48.26045
      H    H15505    -7.50559   33.70168   48.90472
      H    H15506    -6.33467   32.74968   48.78422
      O    O15507    -2.90311   34.60896   64.19267
      H    H15508    -2.16216   34.94654   63.68942
      H    H15509    -3.66584   34.77817   63.63965
      O    O15510    -8.77632   31.23760   47.40469
      H    H15511    -8.25576   30.52251   47.03880
      H    H15512    -8.12948   31.87619   47.70474
      O    O15513    -4.22854   32.66044   62.72820
      H    H15514    -3.81444   32.81495   63.57724
      H    H15515    -5.16344   32.78597   62.89077
      O    O15516    -3.75632   30.00006   64.73211
      H    H15517    -3.17425   29.24529   64.64416
      H    H15518    -3.58015   30.53080   63.95526
      O    O15519    -7.13063   30.34411   62.08157
      H    H15520    -7.01101   29.74822   62.82106
      H    H15521    -6.27123   30.38108   61.66170
      O    O15522    -4.79184   30.89783   60.65782
      H    H15523    -5.31832   31.42209   60.05434
      H    H15524    -4.44870   31.53057   61.28880
      O    O15525    -5.54441   26.50283   63.57246
      H    H15526    -6.23286   25.84098   63.50746
      H    H15527    -4.82381   26.05665   64.01730
      O    O15528    -4.91437   23.09799   49.63148
      H    H15529    -4.63414   22.25478   49.98742
      H    H15530    -5.68779   23.33030   50.14536
      O    O15531    -8.76005   40.15291   62.07223
      H    H15532    -8.83418   41.05643   62.37946
      H    H15533    -9.66217   39.83410   62.04443
      O    O15534    -8.21152   39.31877   49.69486
      H    H15535    -7.31644   39.65726   49.71674
      H    H15536    -8.17976   38.59671   49.06729
      O    O15537    -1.23209   37.84913   62.40148
      H    H15538    -1.83189   37.90839   61.65787
      H    H15539    -1.10270   36.90963   62.53117
      O    O15540     0.00806   35.59091   47.73845
      H    H15541    -0.82265   35.65858   48.20918
      H    H15542     0.18524   36.48133   47.43514
      O    O15543    -0.53630   32.33566   50.24187
      H    H15544     0.22560   32.90533   50.34784
      H    H15545    -0.52086   31.76838   51.01270
      O    O15546     0.46970   33.19067   55.08607
      H    H15547     0.84058   32.40740   54.67966
      H    H15548     1.10989   33.87958   54.90780
      O    O15549    -2.54692   34.57433   60.49910
      H    H15550    -3.36094   35.00405   60.76168
      H    H15551    -2.13950   35.18617   59.88600
      O    O15552    -0.48438   32.62910   47.39913
      H    H15553    -0.20949   33.53699   47.27105
      H    H15554    -0.67330   32.56535   48.33532
      O    O15555    -4.08682   25.65358   48.69449
      H    H15556    -3.66833   25.46668   47.85415
      H    H15557    -4.39321   24.80149   49.00478
      O    O15558    -0.58784   30.56600   52.39207
      H    H15559    -0.96348   29.79879   51.96020
      H    H15560    -1.31753   30.94827   52.87956
      O    O15561    -1.19788   29.71315   62.02602
      H    H15562    -1.42927   29.48443   61.12582
      H    H15563    -0.93743   30.63311   61.98051
      O    O15564    -2.75908   24.93879   64.80399
      H    H15565    -1.88206   24.94713   65.18739
      H    H15566    -2.74699   24.20188   64.19323
      O    O15567    -1.31275   28.79175   55.69279
      H    H15568    -0.78900   28.29801   55.06181
      H    H15569    -0.72681   28.92678   56.43755
      O    O15570    -1.13378   28.87573   59.21475
      H    H15571    -2.08351   28.84209   59.32925
      H    H15572    -0.95248   29.78575   58.97972
      O    O15573    -1.82275   28.04908   51.63203
      H    H15574    -1.32684   27.81617   52.41692
      H    H15575    -2.02114   27.21027   51.21580
      O    O15576    -0.39404   26.68518   54.16580
      H    H15577    -0.50411   26.53078   55.10403
      H    H15578     0.36672   26.15727   53.92334
      O    O15579    -2.04746   22.62459   60.62410
      H    H15580    -1.41024   23.23800   60.99002
      H    H15581    -1.89997   22.66066   59.67902
      O    O15582     0.49499   24.51597   47.40642
      H    H15583     1.41992   24.38409   47.19824
      H    H15584     0.47257   24.59525   48.36006
      O    O15585     0.56884   25.28704   50.03209
      H    H15586    -0.22601   25.22155   50.56138
      H    H15587     0.77317   26.22210   50.02062
      O    O15588    -2.48932   39.32619   54.02593
      H    H15589    -1.89341   39.00465   53.34937
      H    H15590    -2.23150   38.85337   54.81725
      O    O15591    -8.67702   23.77721   63.53161
      H    H15592    -8.73813   24.36939   64.28115
      H    H15593    -7.73698   23.66981   63.38664
      O    O15594    -6.03956   23.43422   63.17084
      H    H15595    -5.42552   23.75214   62.50895
      H    H15596    -5.49460   22.94907   63.79043
      O    O15597     0.37796   39.33338   60.57702
      H    H15598    -0.11621   39.73027   59.85974
      H    H15599    -0.23071   38.70830   60.97075
      O    O15600    -5.29876   21.99743   59.49777
      H    H15601    -6.17277   22.33094   59.29506
      H    H15602    -5.40768   21.52475   60.32296
      O    O15603    -4.39156   24.20452   60.88194
      H    H15604    -4.72022   23.38969   60.50211
      H    H15605    -3.44333   24.16150   60.75851
      O    O15606    -1.93810   39.97572   57.85570
      H    H15607    -2.39780   40.72730   57.48150
      H    H15608    -2.56685   39.25637   57.79718
      O    O15609    -8.76897   39.17539   57.85741
      H    H15610    -8.48119   38.92082   56.98071
      H    H15611    -8.25665   38.62313   58.44797
      O    O15612    -7.55127   22.91441   58.43706
      H    H15613    -8.33409   23.38896   58.71674
      H    H15614    -7.84498   22.00990   58.32838
      O    O15615    -2.99917   23.61672   56.48197
      H    H15616    -2.55836   23.56123   55.63413
      H    H15617    -3.26841   24.53252   56.55299
      O    O15618    -1.13531   23.24825   54.49285
      H    H15619    -1.19647   22.30437   54.34595
      H    H15620    -0.35611   23.35626   55.03820
      O    O15621    -5.16335   21.99733   55.18697
      H    H15622    -4.56042   22.56935   55.66182
      H    H15623    -5.90405   22.56128   54.96436
      O    O15624    -2.01989   22.39949   50.46100
      H    H15625    -1.82483   23.29783   50.72774
      H    H15626    -2.80691   22.16820   50.95429
      O    O15627    -8.70174   40.09700   65.22423
      H    H15628    -7.77501   39.86143   65.26783
      H    H15629    -8.71670   40.92420   64.74283
      O    O15630    -0.46723   39.63956   52.22165
      H    H15631    -0.29201   38.95333   51.57775
      H    H15632    -1.16508   40.16427   51.82932
      O    O15633    -4.91383   22.17684   65.56646
      H    H15634    -5.02729   22.49630   66.46162
      H    H15635    -4.09686   22.57809   65.27019
      O    O15636    -2.13398   39.32399   65.04833
      H    H15637    -1.34145   38.82891   64.84093
      H    H15638    -1.84067   40.00300   65.65589
      O    O15639    12.76633   30.19608   54.70429
      H    H15640    12.68574   29.28154   54.43346
      H    H15641    12.35278   30.69279   53.99826
      O    O15642    10.89814   31.97399   56.58521
      H    H15643    10.12235   31.49403   56.87507
      H    H15644    11.54943   31.29455   56.41083
      O    O15645     4.91472   32.28597   57.46279
      H    H15646     4.08321   32.03084   57.86244
      H    H15647     5.52282   32.35704   58.19858
      O    O15648    14.91888   36.38000   55.36513
      H    H15649    14.45703   35.60873   55.69384
      H    H15650    15.73144   36.40661   55.87037
      O    O15651     4.89485   36.31998   57.65859
      H    H15652     5.19765   35.42975   57.47961
      H    H15653     5.63921   36.87700   57.43082
      O    O15654     3.32392   27.24616   51.24703
      H    H15655     2.43559   27.58775   51.14502
      H    H15656     3.60803   27.04619   50.35511
      O    O15657     1.28722   29.84672   57.13100
      H    H15658     1.85883   29.07894   57.13136
      H    H15659     1.28737   30.14560   56.22166
      O    O15660    11.14521   38.66581   54.98553
      H    H15661    10.52636   39.12156   54.41497
      H    H15662    12.00039   38.82095   54.58450
      O    O15663    10.33904   34.64970   56.59223
      H    H15664    10.26986   33.70870   56.43114
      H    H15665    11.10102   34.73985   57.16449
      O    O15666     2.52970   25.25516   58.91789
      H    H15667     2.34999   24.35773   59.19817
      H    H15668     2.12771   25.80234   59.59259
      O    O15669    11.36955   27.45674   56.81912
      H    H15670    11.74604   26.58393   56.70649
      H    H15671    11.27150   27.79261   55.92817
      O    O15672     5.50005   25.82931   52.28087
      H    H15673     5.60673   26.72968   52.58774
      H    H15674     4.58929   25.78110   51.99033
      O    O15675    15.15197   24.95179   53.75196
      H    H15676    15.97293   24.46144   53.79451
      H    H15677    15.18537   25.54155   54.50514
      O    O15678     3.14837   27.75121   57.52613
      H    H15679     3.82938   28.01504   58.14487
      H    H15680     2.83318   26.91129   57.85993
      O    O15681     7.34083   28.79794   56.61339
      H    H15682     7.84865   29.29604   57.25389
      H    H15683     7.87215   28.02146   56.43732
      O    O15684    19.44192   26.96846   60.31632
      H    H15685    18.73714   27.35663   59.79783
      H    H15686    19.70771   27.66349   60.91841
      O    O15687     5.62444   23.43780   60.87973
      H    H15688     5.62628   23.95504   60.07432
      H    H15689     4.79487   22.96082   60.85672
      O    O15690    12.01155   33.54973   52.37872
      H    H15691    11.39327   34.01467   51.81499
      H    H15692    12.52387   34.24248   52.79567
      O    O15693     6.87472   33.07732   59.05708
      H    H15694     6.54166   33.70421   59.69918
      H    H15695     7.05139   33.60350   58.27724
      O    O15696    15.38811   26.89182   56.52471
      H    H15697    14.68367   27.18031   57.10502
      H    H15698    15.74933   27.70184   56.16467
      O    O15699     5.30597   25.14879   58.88677
      H    H15700     5.64765   25.99300   58.59216
      H    H15701     4.36755   25.29717   59.00331
      O    O15702     6.08663   35.04540   60.87200
      H    H15703     6.70403   35.72050   60.59044
      H    H15704     5.22594   35.45419   60.78075
      O    O15705     1.37987   34.23538   49.75268
      H    H15706     1.00266   34.72409   49.02117
      H    H15707     1.63717   34.90791   50.38333
      O    O15708    17.00439   36.50934   58.78746
      H    H15709    16.32074   37.17925   58.77913
      H    H15710    17.54382   36.70740   58.02195
      O    O15711    18.45681   26.33730   56.91563
      H    H15712    17.50930   26.37120   57.04718
      H    H15713    18.78180   27.15120   57.30057
      O    O15714     8.98876   22.63702   55.21123
      H    H15715     9.29626   22.08171   54.49478
      H    H15716     8.05883   22.77147   55.02853
      O    O15717    14.54027   38.35375   57.50198
      H    H15718    14.55298   37.94998   56.63420
      H    H15719    13.98779   39.12848   57.39812
      O    O15720    15.83481   35.07537   52.59099
      H    H15721    15.72444   34.13281   52.71594
      H    H15722    15.83163   35.43694   53.47727
      O    O15723    13.93881   33.25673   58.83024
      H    H15724    14.35569   33.04275   57.99558
      H    H15725    14.66279   33.51401   59.40110
      O    O15726    11.37684   30.70190   51.94724
      H    H15727    10.44976   30.63564   52.17609
      H    H15728    11.52932   31.63992   51.83277
      O    O15729    11.36374   26.97360   48.94396
      H    H15730    10.42411   27.13500   49.02921
      H    H15731    11.68207   27.69217   48.39756
      O    O15732    17.88502   31.65546   58.92186
      H    H15733    17.05688   31.72477   58.44688
      H    H15734    18.48007   32.24089   58.45345
      O    O15735    15.40656   32.26393   52.45077
      H    H15736    14.78781   31.92589   51.80340
      H    H15737    15.38901   31.61991   53.15869
      O    O15738    14.84922   28.44239   59.86735
      H    H15739    14.43634   29.26776   60.12135
      H    H15740    14.11682   27.85689   59.67499
      O    O15741     6.98250   31.22838   54.72922
      H    H15742     6.57820   30.51610   54.23381
      H    H15743     7.06881   30.88370   55.61802
      O    O15744     7.45067   34.91513   56.89314
      H    H15745     7.15350   34.30968   56.21392
      H    H15746     8.40065   34.95287   56.78207
      O    O15747     5.69536   28.00270   58.50912
      H    H15748     6.24682   28.11223   57.73445
      H    H15749     6.20971   28.37646   59.22464
      O    O15750    15.53923   38.48832   60.55545
      H    H15751    15.06229   39.29554   60.36271
      H    H15752    14.85541   37.83615   60.70807
      O    O15753     6.54251   34.65330   63.54392
      H    H15754     5.64537   34.87730   63.79126
      H    H15755     6.56780   34.77680   62.59506
      O    O15756    13.58303   31.50262   49.45804
      H    H15757    14.02236   30.66486   49.31183
      H    H15758    14.29588   32.13556   49.54446
      O    O15759     5.36963   31.52464   62.11965
      H    H15760     5.23041   32.39692   62.48839
      H    H15761     4.48777   31.18192   61.97445
      O    O15762    11.69257   36.44222   53.42617
      H    H15763    12.13216   37.18466   53.01171
      H    H15764    11.63126   36.68488   54.35006
      O    O15765     7.16767   37.46681   64.32817
      H    H15766     7.13921   37.87110   63.46101
      H    H15767     7.00417   36.53784   64.16533
      O    O15768    17.16475   22.75690   47.77215
      H    H15769    16.85201   22.84958   48.67205
      H    H15770    17.92600   23.33500   47.72189
      O    O15771     3.68296   30.12288   52.22988
      H    H15772     3.56272   30.84909   51.61801
      H    H15773     3.37305   29.35317   51.75267
      O    O15774    19.11915   38.24952   65.62459
      H    H15775    19.59512   38.72780   66.30349
      H    H15776    19.73987   38.18126   64.89914
      O    O15777     1.32150   33.29439   58.03675
      H    H15778     1.39954   33.42927   57.09232
      H    H15779     1.93567   32.58598   58.22956
      O    O15780     2.56626   34.99441   54.44736
      H    H15781     2.15907   35.13587   53.59272
      H    H15782     3.45756   34.71043   54.24448
      O    O15783    18.52248   35.44080   62.78459
      H    H15784    18.64878   35.20199   61.86631
      H    H15785    18.56461   34.60925   63.25680
      O    O15786    12.38415   39.14360   61.35407
      H    H15787    12.89862   39.05440   62.15631
      H    H15788    11.54106   39.48957   61.64686
      O    O15789    14.35959   39.42913   50.78247
      H    H15790    14.19970   39.13943   51.68065
      H    H15791    14.19426   38.65315   50.24699
      O    O15792     6.83843   39.20899   52.55963
      H    H15793     6.66268   38.29254   52.34641
      H    H15794     5.98400   39.56772   52.79941
      O    O15795    14.06220   36.93789   49.34227
      H    H15796    13.36872   36.93562   48.68250
      H    H15797    14.80449   36.51382   48.91169
      O    O15798    13.62720   38.56416   53.41712
      H    H15799    14.08289   37.78310   53.73098
      H    H15800    13.96645   39.27484   53.96124
      O    O15801    18.37488   27.49405   63.74956
      H    H15802    17.75930   28.00201   63.22111
      H    H15803    18.05452   26.59388   63.69216
      O    O15804     1.37745   34.33581   60.57619
      H    H15805     1.54056   33.86634   59.75813
      H    H15806     1.84270   33.82816   61.24108
      O    O15807     6.14933   23.46638   55.61225
      H    H15808     5.70614   24.24734   55.28070
      H    H15809     6.70783   23.78937   56.31934
      O    O15810    10.43631   26.33324   61.21578
      H    H15811     9.97425   26.54154   62.02777
      H    H15812    10.03412   25.51917   60.91285
      O    O15813    15.43676   27.55413   62.34545
      H    H15814    14.58612   27.25471   62.66635
      H    H15815    15.27694   27.79833   61.43383
      O    O15816    12.53173   29.05431   64.44533
      H    H15817    12.85707   28.22068   64.10555
      H    H15818    13.31976   29.57716   64.59316
      O    O15819     9.26521   23.08745   50.49283
      H    H15820     8.64063   23.08344   51.21816
      H    H15821     9.17822   22.22055   50.09643
      O    O15822     8.18692   24.01112   57.47121
      H    H15823     8.48415   24.91740   57.39041
      H    H15824     8.73547   23.52299   56.85717
      O    O15825     5.94075   28.58974   53.34037
      H    H15826     5.71484   28.37346   54.24504
      H    H15827     5.16000   29.02259   52.99497
      O    O15828    13.17053   28.59608   51.93944
      H    H15829    12.57142   29.31966   51.75580
      H    H15830    13.71849   28.53376   51.15708
      O    O15831     8.38067   29.48830   64.00640
      H    H15832     8.28503   28.54777   63.85644
      H    H15833     9.22387   29.70981   63.61121
      O    O15834    11.77701   27.23243   53.96977
      H    H15835    12.16997   27.54965   53.15664
      H    H15836    12.13870   26.35362   54.08422
      O    O15837     3.51173   25.89967   62.15978
      H    H15838     3.11806   26.74719   62.36706
      H    H15839     2.82357   25.26230   62.35064
      O    O15840    10.08623   25.98316   65.22945
      H    H15841     9.39606   25.79038   65.86406
      H    H15842    10.82946   26.26663   65.76188
      O    O15843     0.81343   23.82251   56.19279
      H    H15844     0.52474   24.39280   56.90528
      H    H15845     1.55801   23.34296   56.55591
      O    O15846     1.00045   27.76452   47.40306
      H    H15847     0.91792   28.70760   47.54456
      H    H15848     0.64876   27.62201   46.52429
      O    O15849    12.36253   29.82301   58.06484
      H    H15850    11.63064   30.33169   58.41385
      H    H15851    11.96496   29.00600   57.76372
      O    O15852     8.80027   26.49843   56.47009
      H    H15853     8.80387   26.05742   55.62055
      H    H15854     9.69538   26.82016   56.57728
      O    O15855     4.65050   26.38108   55.42951
      H    H15856     4.31051   26.85860   56.18622
      H    H15857     3.88824   25.92759   55.06962
      O    O15858     8.86228   27.49963   49.46077
      H    H15859     8.98356   27.45828   50.40935
      H    H15860     8.47713   28.36205   49.30544
      O    O15861    12.82512   25.27637   57.47714
      H    H15862    12.84239   25.72724   58.32132
      H    H15863    12.57668   24.37694   57.69048
      O    O15864     7.87443   29.80975   48.85910
      H    H15865     7.30612   29.36157   48.23269
      H    H15866     8.58333   30.16903   48.32561
      O    O15867    16.25219   22.68959   63.31578
      H    H15868    16.57677   21.95856   63.84157
      H    H15869    16.28784   22.37096   62.41388
      O    O15870     2.95135   33.71095   62.73577
      H    H15871     2.56683   33.07032   63.33407
      H    H15872     3.26257   34.41456   63.30525
      O    O15873     9.10106   30.55860   58.21663
      H    H15874     9.46808   30.08446   58.96277
      H    H15875     8.91157   31.43276   58.55747
      O    O15876     1.96511   25.30297   54.34598
      H    H15877     1.67980   24.93854   55.18384
      H    H15878     1.90300   24.57102   53.73230
      O    O15879     6.89100   29.59947   60.53506
      H    H15880     6.58671   30.47867   60.76009
      H    H15881     7.84565   29.65945   60.57080
      O    O15882     5.41918   33.80557   51.13174
      H    H15883     4.64541   33.26533   50.97161
      H    H15884     6.14864   33.28623   50.79352
      O    O15885    16.17798   32.80210   56.92438
      H    H15886    16.89789   33.29763   56.53399
      H    H15887    15.97616   32.12389   56.27977
      O    O15888    11.63897   24.19590   51.06732
      H    H15889    10.82543   23.69722   50.99185
      H    H15890    11.44517   25.03572   50.65095
      O    O15891    11.55986   32.87301   62.81128
      H    H15892    11.49359   31.95258   62.55704
      H    H15893    10.93037   32.97055   63.52574
      O    O15894    14.35381   28.56786   49.36353
      H    H15895    15.24177   28.87959   49.18867
      H    H15896    14.32432   27.69509   48.97159
      O    O15897     5.46292   33.47361   54.76962
      H    H15898     5.98079   32.67043   54.71531
      H    H15899     5.01132   33.41152   55.61130
      O    O15900    10.34987   34.74023   50.04235
      H    H15901    10.69144   35.48446   49.54668
      H    H15902     9.52114   35.05335   50.40483
      O    O15903     2.94737   30.43974   61.68219
      H    H15904     2.58887   31.10513   62.26953
      H    H15905     2.65283   29.60810   62.05345
      O    O15906     6.14869   30.89817   64.56615
      H    H15907     5.84870   31.04388   63.66893
      H    H15908     6.91981   30.33870   64.47349
      O    O15909    11.49153   35.69507   62.56166
      H    H15910    11.50598   34.76316   62.34355
      H    H15911    10.78404   35.78104   63.20064
      O    O15912    16.62524   29.87905   48.83152
      H    H15913    16.54161   30.31047   47.98116
      H    H15914    17.34466   30.33888   49.26420
      O    O15915    17.70265   32.33580   61.90852
      H    H15916    16.97747   32.92868   61.71146
      H    H15917    18.23020   32.32815   61.10985
      O    O15918    17.65396   36.73327   51.55973
      H    H15919    17.01158   36.07884   51.83411
      H    H15920    17.26703   37.13878   50.78380
      O    O15921    13.23261   34.06182   55.40690
      H    H15922    13.58499   33.46463   54.74704
      H    H15923    12.34884   33.73624   55.57773
      O    O15924     9.31894   34.82159   52.81394
      H    H15925    10.00605   35.36851   53.19470
      H    H15926     8.53218   35.36566   52.84890
      O    O15927     1.45818   30.43887   48.30565
      H    H15928     2.32766   30.72135   48.58924
      H    H15929     0.96721   31.25246   48.19053
      O    O15930     8.62166   31.82619   52.42648
      H    H15931     9.07794   32.63671   52.65250
      H    H15932     8.27048   31.50850   53.25833
      O    O15933    10.92492   37.33682   59.65571
      H    H15934    11.56914   37.54276   60.33305
      H    H15935    11.28786   36.57566   59.20279
      O    O15936     4.52284   22.16995   52.89873
      H    H15937     4.39430   22.16174   53.84722
      H    H15938     3.69904   22.50826   52.54783
      O    O15939    12.19813   35.34006   58.37345
      H    H15940    12.84035   34.63937   58.48667
      H    H15941    12.72306   36.11990   58.19314
      O    O15942    16.04370   35.62492   48.09737
      H    H15943    15.81746   34.90796   48.68983
      H    H15944    15.65332   35.37616   47.25954
      O    O15945    13.97189   36.13955   61.57706
      H    H15946    14.30751   36.72622   62.25485
      H    H15947    13.05192   36.00882   61.80684
      O    O15948     1.82530   39.65161   48.87181
      H    H15949     2.18507   40.25054   48.21754
      H    H15950     1.68454   40.19760   49.64532
      O    O15951     1.52223   23.92907   62.35940
      H    H15952     0.80808   24.12876   62.96466
      H    H15953     1.94173   23.15302   62.73088
      O    O15954    15.62533   33.54211   49.75878
      H    H15955    15.33750   34.00338   50.54657
      H    H15956    16.42054   33.08189   50.02721
      O    O15957     1.80949   37.91709   63.34605
      H    H15958     1.91860   36.97657   63.20559
      H    H15959     1.15755   38.18257   62.69743
      O    O15960     9.80075   36.18868   64.74587
      H    H15961     9.48044   35.46961   65.29044
      H    H15962     9.12658   36.86419   64.81947
      O    O15963     7.84217   37.03473   49.68918
      H    H15964     7.83318   37.76770   49.07363
      H    H15965     6.92200   36.78788   49.78188
      O    O15966     3.44283   32.25622   50.43386
      H    H15967     2.83562   32.99611   50.44339
      H    H15968     3.91776   32.34615   49.60768
      O    O15969    13.01611   26.42130   60.10955
      H    H15970    13.38419   25.60082   60.43750
      H    H15971    12.15593   26.48149   60.52511
      O    O15972    16.38231   25.37699   50.91830
      H    H15973    15.75363   25.48156   50.20413
      H    H15974    15.88750   25.59667   51.70769
      O    O15975    10.82813   37.09755   48.35170
      H    H15976    10.92932   36.89395   47.42190
      H    H15977     9.92830   36.84338   48.55648
      O    O15978     8.35071   27.65559   52.33409
      H    H15979     7.64233   28.12422   52.77545
      H    H15980     8.63516   26.99779   52.96861
      O    O15981     9.97631   29.07526   60.33334
      H    H15982    10.47483   29.54984   60.99853
      H    H15983    10.11860   28.15161   60.54035
      O    O15984    12.38226   24.38065   53.77367
      H    H15985    12.25904   24.39927   52.82462
      H    H15986    13.33071   24.42855   53.89351
      O    O15987     9.46994   39.61618   53.04647
      H    H15988     9.72409   39.57832   52.12440
      H    H15989     8.52118   39.48952   53.03929
      O    O15990     6.55422   25.96409   49.70916
      H    H15991     7.40327   26.40111   49.64318
      H    H15992     6.18734   26.27612   50.53637
      O    O15993    17.18299   25.29205   61.17618
      H    H15994    16.68035   26.03259   61.51556
      H    H15995    17.99866   25.68045   60.85986
      O    O15996    15.47519   30.53537   54.62232
      H    H15997    14.53421   30.55039   54.79709
      H    H15998    15.78960   29.74897   55.06835
      O    O15999     5.45336   32.21733   48.18271
      H    H16000     6.21969   32.10547   48.74526
      H    H16001     5.53083   31.52113   47.53039
      O    O16002     4.14803   29.64984   48.86600
      H    H16003     4.22839   28.70259   48.97774
      H    H16004     5.04001   29.98053   48.97207
      O    O16005    17.47775   37.70626   56.29774
      H    H16006    17.60249   38.52937   56.77013
      H    H16007    18.34431   37.49533   55.95016
      O    O16008     4.94951   39.79938   55.96946
      H    H16009     5.68575   39.25092   56.24031
      H    H16010     5.33360   40.66498   55.83006
      O    O16011     1.83405   35.86673   51.84361
      H    H16012     0.90803   36.10885   51.83415
      H    H16013     2.29970   36.69416   51.72208
      O    O16014     3.95533   38.98398   65.15802
      H    H16015     4.75661   39.30519   65.57156
      H    H16016     3.44052   38.62354   65.88001
      O    O16017     8.05974   38.97241   47.79201
      H    H16018     8.85260   39.26129   47.34019
      H    H16019     7.54017   38.54162   47.11326
      O    O16020    12.79180   35.09197   65.10556
      H    H16021    12.18561   35.11513   64.36513
      H    H16022    12.48721   34.36027   65.64228
      O    O16023    14.22183   38.82000   63.71650
      H    H16024    15.17401   38.73580   63.66652
      H    H16025    14.07466   39.48417   64.38988
      O    O16026    17.11275   38.19942   49.21569
      H    H16027    16.82690   37.78593   48.40111
      H    H16028    16.91471   39.12819   49.09574
      O    O16029     1.67511   31.47133   64.10162
      H    H16030     2.17902   30.89206   64.67324
      H    H16031     0.93586   31.75535   64.63926
      O    O16032     8.57748   34.19275   47.65625
      H    H16033     8.47254   33.57798   48.38239
      H    H16034     8.40990   33.66934   46.87255
      O    O16035     8.72891   32.87843   63.63517
      H    H16036     7.96348   33.44693   63.55064
      H    H16037     8.91050   32.58605   62.74200
      O    O16038    11.81775   33.25475   48.26045
      H    H16039    11.26876   33.70168   48.90472
      H    H16040    12.43968   32.74968   48.78422
      O    O16041    15.87124   34.60896   64.19267
      H    H16042    16.61219   34.94654   63.68942
      H    H16043    15.10851   34.77817   63.63965
      O    O16044     3.70742   29.61429   64.99663
      H    H16045     3.74796   29.31568   65.90515
      H    H16046     4.56197   30.01505   64.83738
      O    O16047     7.48526   32.21384   50.15698
      H    H16048     7.90690   32.04783   51.00012
      H    H16049     7.61035   31.40387   49.66249
      O    O16050     5.64800   28.19350   62.96408
      H    H16051     5.11765   27.70259   62.33641
      H    H16052     6.31681   28.62192   62.42987
      O    O16053     9.99803   31.23760   47.40469
      H    H16054    10.51859   30.52251   47.03880
      H    H16055    10.64487   31.87619   47.70474
      O    O16056    14.54581   32.66044   62.72820
      H    H16057    14.95991   32.81495   63.57724
      H    H16058    13.61091   32.78597   62.89077
      O    O16059    15.01803   30.00006   64.73211
      H    H16060    15.60010   29.24529   64.64416
      H    H16061    15.19420   30.53080   63.95526
      O    O16062     6.13523   25.15974   63.04381
      H    H16063     6.04092   24.54181   62.31889
      H    H16064     5.55497   25.88636   62.81680
      O    O16065     8.90138   23.71706   60.07654
      H    H16066     8.45311   23.73949   59.23110
      H    H16067     8.26790   23.31896   60.67357
      O    O16068     9.30733   32.61249   60.69779
      H    H16069     9.72614   33.45577   60.52541
      H    H16070     8.38820   32.74970   60.46847
      O    O16071    11.64372   30.34411   62.08157
      H    H16072    11.76334   29.74822   62.82106
      H    H16073    12.50312   30.38108   61.66170
      O    O16074    13.98251   30.89783   60.65782
      H    H16075    13.45603   31.42209   60.05434
      H    H16076    14.32565   31.53057   61.28880
      O    O16077     6.38115   28.28717   47.10279
      H    H16078     6.18006   27.42390   47.46413
      H    H16079     6.21036   28.20050   46.16495
      O    O16080     7.15807   38.91779   61.81356
      H    H16081     6.62018   39.64240   61.49443
      H    H16082     7.41147   38.44083   61.02330
      O    O16083     8.41060   26.88625   63.33915
      H    H16084     9.00057   26.57783   64.02694
      H    H16085     7.59262   26.41422   63.49514
      O    O16086    13.22994   26.50283   63.57246
      H    H16087    12.54149   25.84098   63.50746
      H    H16088    13.95054   26.05665   64.01730
      O    O16089    13.85998   23.09799   49.63148
      H    H16090    14.14021   22.25478   49.98742
      H    H16091    13.08656   23.33030   50.14536
      O    O16092     5.17943   25.38723   47.09058
      H    H16093     5.48202   25.39397   46.18250
      H    H16094     5.91889   25.03701   47.58735
      O    O16095    10.01430   40.15291   62.07223
      H    H16096     9.94017   41.05643   62.37946
      H    H16097     9.11218   39.83410   62.04443
      O    O16098     8.39792   24.33069   48.07620
      H    H16099     8.05012   23.65309   47.49645
      H    H16100     8.59920   23.86964   48.89054
      O    O16101    10.56283   39.31877   49.69486
      H    H16102    11.45791   39.65726   49.71674
      H    H16103    10.59459   38.59671   49.06729
      O    O16104     4.20244   34.69147   47.92356
      H    H16105     4.63993   35.23444   48.57932
      H    H16106     4.68722   33.86617   47.93320
      O    O16107     1.41702   37.48037   55.37559
      H    H16108     1.74733   36.61248   55.14345
      H    H16109     1.84612   37.68623   56.20608
      O    O16110     6.01322   35.81127   53.03579
      H    H16111     5.71277   35.68777   53.93618
      H    H16112     5.90697   34.95213   52.62736
      O    O16113     1.90605   38.34743   58.11375
      H    H16114     1.46914   38.52751   58.94617
      H    H16115     2.47381   39.10489   57.97192
      O    O16116    17.54226   37.84913   62.40148
      H    H16117    16.94246   37.90839   61.65787
      H    H16118    17.67165   36.90963   62.53117
      O    O16119    18.78241   35.59091   47.73845
      H    H16120    17.95170   35.65858   48.20918
      H    H16121    18.95959   36.48133   47.43514
      O    O16122    18.23805   32.33566   50.24187
      H    H16123    18.99995   32.90533   50.34784
      H    H16124    18.25349   31.76838   51.01270
      O    O16125     1.73849   30.85946   54.47264
      H    H16126     1.08337   30.59062   53.82861
      H    H16127     2.57628   30.74990   54.02284
      O    O16128    19.24405   33.19067   55.08607
      H    H16129    19.61493   32.40740   54.67966
      H    H16130    19.88424   33.87958   54.90780
      O    O16131    16.22743   34.57433   60.49910
      H    H16132    15.41341   35.00405   60.76168
      H    H16133    16.63485   35.18617   59.88600
      O    O16134    18.28997   32.62910   47.39913
      H    H16135    18.56486   33.53699   47.27105
      H    H16136    18.10105   32.56535   48.33532
      O    O16137    14.68753   25.65358   48.69449
      H    H16138    15.10602   25.46668   47.85415
      H    H16139    14.38114   24.80149   49.00478
      O    O16140    18.18651   30.56600   52.39207
      H    H16141    17.81087   29.79879   51.96020
      H    H16142    17.45682   30.94827   52.87956
      O    O16143     2.77608   31.24471   59.01297
      H    H16144     3.14339   31.15745   59.89258
      H    H16145     2.20716   30.48137   58.91366
      O    O16146    17.57647   29.71315   62.02602
      H    H16147    17.34508   29.48443   61.12582
      H    H16148    17.83692   30.63311   61.98051
      O    O16149     2.32768   28.15562   62.91882
      H    H16150     1.43329   28.12230   63.25819
      H    H16151     2.86744   28.35430   63.68394
      O    O16152    16.01527   24.93879   64.80399
      H    H16153    16.89229   24.94713   65.18739
      H    H16154    16.02736   24.20188   64.19323
      O    O16155     0.95230   28.06935   50.41517
      H    H16156     0.04870   28.33237   50.24034
      H    H16157     1.43636   28.34047   49.63517
      O    O16158    17.46160   28.79175   55.69279
      H    H16159    17.98535   28.29801   55.06181
      H    H16160    18.04754   28.92678   56.43755
      O    O16161    17.64057   28.87573   59.21475
      H    H16162    16.69084   28.84209   59.32925
      H    H16163    17.82187   29.78575   58.97972
      O    O16164     3.49502   27.12590   48.32461
      H    H16165     4.20419   26.70422   47.83934
      H    H16166     2.77901   27.19343   47.69295
      O    O16167     3.14243   23.17984   47.36488
      H    H16168     3.86525   23.72073   47.68300
      H    H16169     3.41489   22.90618   46.48903
      O    O16170    16.95160   28.04908   51.63203
      H    H16171    17.44751   27.81617   52.41692
      H    H16172    16.75321   27.21027   51.21580
      O    O16173     2.83165   22.43045   57.26714
      H    H16174     3.47927   21.88019   56.82665
      H    H16175     3.25184   22.68477   58.08872
      O    O16176    18.38031   26.68518   54.16580
      H    H16177    18.27024   26.53078   55.10403
      H    H16178    19.14107   26.15727   53.92334
      O    O16179    16.72689   22.62459   60.62410
      H    H16180    17.36411   23.23800   60.99002
      H    H16181    16.87438   22.66066   59.67902
      O    O16182    19.26934   24.51597   47.40642
      H    H16183    20.19427   24.38409   47.19824
      H    H16184    19.24692   24.59525   48.36006
      O    O16185    19.34319   25.28704   50.03209
      H    H16186    18.54834   25.22155   50.56138
      H    H16187    19.54752   26.22210   50.02062
      O    O16188    16.28503   39.32619   54.02593
      H    H16189    16.88094   39.00465   53.34937
      H    H16190    16.54285   38.85337   54.81725
      O    O16191     2.58485   22.58602   60.00967
      H    H16192     2.23633   23.04240   60.77549
      H    H16193     2.25362   21.69173   60.09191
      O    O16194     4.19129   35.75798   64.17499
      H    H16195     4.14825   35.38727   65.05643
      H    H16196     4.32239   36.69574   64.31517
      O    O16197     7.89189   37.31394   59.77596
      H    H16198     7.65103   37.58140   58.88901
      H    H16199     8.83216   37.48451   59.83105
      O    O16200    10.09733   23.77721   63.53161
      H    H16201    10.03622   24.36939   64.28115
      H    H16202    11.03737   23.66981   63.38664
      O    O16203    12.73479   23.43422   63.17084
      H    H16204    13.34883   23.75214   62.50895
      H    H16205    13.27975   22.94907   63.79043
      O    O16206    19.15231   39.33338   60.57702
      H    H16207    18.65814   39.73027   59.85974
      H    H16208    18.54364   38.70830   60.97075
      O    O16209     3.25692   22.11364   63.28475
      H    H16210     3.80522   21.93245   62.52136
      H    H16211     3.32245   21.32305   63.82038
      O    O16212     4.03009   38.70421   61.29477
      H    H16213     3.43612   38.57268   62.03377
      H    H16214     4.02248   37.86802   60.82898
      O    O16215    13.47559   21.99743   59.49777
      H    H16216    12.60158   22.33094   59.29506
      H    H16217    13.36667   21.52475   60.32296
      O    O16218    14.38279   24.20452   60.88194
      H    H16219    14.05413   23.38969   60.50211
      H    H16220    15.33102   24.16150   60.75851
      O    O16221    16.83625   39.97572   57.85570
      H    H16222    16.37655   40.72730   57.48150
      H    H16223    16.20750   39.25637   57.79718
      O    O16224     3.66132   36.07004   60.24557
      H    H16225     2.93472   35.45057   60.17817
      H    H16226     3.72223   36.46411   59.37538
      O    O16227     7.26583   38.28454   57.03051
      H    H16228     7.78233   37.67328   56.50534
      H    H16229     7.91556   38.78742   57.52161
      O    O16230    10.00538   39.17539   57.85741
      H    H16231    10.29316   38.92082   56.98071
      H    H16232    10.51770   38.62313   58.44797
      O    O16233    11.22308   22.91441   58.43706
      H    H16234    10.44026   23.38896   58.71674
      H    H16235    10.92937   22.00990   58.32838
      O    O16236    15.77518   23.61672   56.48197
      H    H16237    16.21599   23.56123   55.63413
      H    H16238    15.50594   24.53252   56.55299
      O    O16239    17.63904   23.24825   54.49285
      H    H16240    17.57788   22.30437   54.34595
      H    H16241    18.41824   23.35626   55.03820
      O    O16242     1.94432   39.38748   53.45525
      H    H16243     1.77652   38.75455   54.15344
      H    H16244     1.07777   39.59342   53.10467
      O    O16245     2.56712   23.21916   50.95843
      H    H16246     3.32505   23.33205   50.38484
      H    H16247     2.10483   24.05608   50.91278
      O    O16248     9.10850   25.33309   53.94866
      H    H16249     8.29595   24.95878   53.60825
      H    H16250     9.61266   24.57760   54.25078
      O    O16251    13.61100   21.99733   55.18697
      H    H16252    14.21393   22.56935   55.66182
      H    H16253    12.87030   22.56128   54.96436
      O    O16254    16.75446   22.39949   50.46100
      H    H16255    16.94952   23.29783   50.72774
      H    H16256    15.96744   22.16820   50.95429
      O    O16257     3.55059   38.08081   50.90026
      H    H16258     3.02535   38.46161   50.19646
      H    H16259     3.47504   38.70588   51.62123
      O    O16260     4.93963   23.74557   49.49863
      H    H16261     5.46891   22.95855   49.36942
      H    H16262     5.57246   24.42469   49.73218
      O    O16263     7.13342   23.48308   52.55317
      H    H16264     6.50369   22.78181   52.72018
      H    H16265     6.59393   24.24349   52.33648
      O    O16266    10.07261   40.09700   65.22423
      H    H16267    10.99934   39.86143   65.26783
      H    H16268    10.05765   40.92420   64.74283
      O    O16269    18.30712   39.63956   52.22165
      H    H16270    18.48234   38.95333   51.57775
      H    H16271    17.60927   40.16427   51.82932
      O    O16272     7.25897   22.76148   64.98842
      H    H16273     6.97740   23.26484   64.22450
      H    H16274     7.64094   21.96365   64.62263
      O    O16275     6.14988   40.02904   49.77519
      H    H16276     6.88176   39.74497   49.22757
      H    H16277     6.40925   39.79037   50.66512
      O    O16278     5.31136   36.14552   49.77982
      H    H16279     4.68225   36.61403   50.32840
      H    H16280     5.42614   35.30044   50.21444
      O    O16281    13.86052   22.17684   65.56646
      H    H16282    13.74706   22.49630   66.46162
      H    H16283    14.67749   22.57809   65.27019
      O    O16284    16.64037   39.32399   65.04833
      H    H16285    17.43290   38.82891   64.84093
      H    H16286    16.93368   40.00300   65.65589
      O    O16287    31.54068   30.19608   54.70429
      H    H16288    31.46009   29.28154   54.43346
      H    H16289    31.12713   30.69279   53.99826
      O    O16290    29.67249   31.97399   56.58521
      H    H16291    28.89670   31.49403   56.87507
      H    H16292    30.32378   31.29455   56.41083
      O    O16293    23.68907   32.28597   57.46279
      H    H16294    22.85756   32.03084   57.86244
      H    H16295    24.29717   32.35704   58.19858
      O    O16296    33.69323   36.38000   55.36513
      H    H16297    33.23138   35.60873   55.69384
      H    H16298    34.50579   36.40661   55.87037
      O    O16299    23.66920   36.31998   57.65859
      H    H16300    23.97200   35.42975   57.47961
      H    H16301    24.41356   36.87700   57.43082
      O    O16302    22.09827   27.24616   51.24703
      H    H16303    21.20994   27.58775   51.14502
      H    H16304    22.38238   27.04619   50.35511
      O    O16305    20.06157   29.84672   57.13100
      H    H16306    20.63318   29.07894   57.13136
      H    H16307    20.06172   30.14560   56.22166
      O    O16308    29.91956   38.66581   54.98553
      H    H16309    29.30071   39.12156   54.41497
      H    H16310    30.77474   38.82095   54.58450
      O    O16311    29.11339   34.64970   56.59223
      H    H16312    29.04421   33.70870   56.43114
      H    H16313    29.87537   34.73985   57.16449
      O    O16314    21.30405   25.25516   58.91789
      H    H16315    21.12434   24.35773   59.19817
      H    H16316    20.90206   25.80234   59.59259
      O    O16317    30.14390   27.45674   56.81912
      H    H16318    30.52039   26.58393   56.70649
      H    H16319    30.04585   27.79261   55.92817
      O    O16320    24.27440   25.82931   52.28087
      H    H16321    24.38108   26.72968   52.58774
      H    H16322    23.36364   25.78110   51.99033
      O    O16323    33.92632   24.95179   53.75196
      H    H16324    34.74728   24.46144   53.79451
      H    H16325    33.95972   25.54155   54.50514
      O    O16326    21.92272   27.75121   57.52613
      H    H16327    22.60373   28.01504   58.14487
      H    H16328    21.60753   26.91129   57.85993
      O    O16329    26.11518   28.79794   56.61339
      H    H16330    26.62300   29.29604   57.25389
      H    H16331    26.64650   28.02146   56.43732
      O    O16332    38.21627   26.96846   60.31632
      H    H16333    37.51149   27.35663   59.79783
      H    H16334    38.48206   27.66349   60.91841
      O    O16335    24.39879   23.43780   60.87973
      H    H16336    24.40063   23.95504   60.07432
      H    H16337    23.56922   22.96082   60.85672
      O    O16338    30.78590   33.54973   52.37872
      H    H16339    30.16762   34.01467   51.81499
      H    H16340    31.29822   34.24248   52.79567
      O    O16341    25.64907   33.07732   59.05708
      H    H16342    25.31601   33.70421   59.69918
      H    H16343    25.82574   33.60350   58.27724
      O    O16344    34.16246   26.89182   56.52471
      H    H16345    33.45802   27.18031   57.10502
      H    H16346    34.52368   27.70184   56.16467
      O    O16347    24.08032   25.14879   58.88677
      H    H16348    24.42200   25.99300   58.59216
      H    H16349    23.14190   25.29717   59.00331
      O    O16350    24.86098   35.04540   60.87200
      H    H16351    25.47838   35.72050   60.59044
      H    H16352    24.00029   35.45419   60.78075
      O    O16353    20.15422   34.23538   49.75268
      H    H16354    19.77701   34.72409   49.02117
      H    H16355    20.41152   34.90791   50.38333
      O    O16356    35.77874   36.50934   58.78746
      H    H16357    35.09509   37.17925   58.77913
      H    H16358    36.31817   36.70740   58.02195
      O    O16359    37.23116   26.33730   56.91563
      H    H16360    36.28365   26.37120   57.04718
      H    H16361    37.55615   27.15120   57.30057
      O    O16362    27.76311   22.63702   55.21123
      H    H16363    28.07061   22.08171   54.49478
      H    H16364    26.83318   22.77147   55.02853
      O    O16365    33.31462   38.35375   57.50198
      H    H16366    33.32733   37.94998   56.63420
      H    H16367    32.76214   39.12848   57.39812
      O    O16368    34.60916   35.07537   52.59099
      H    H16369    34.49879   34.13281   52.71594
      H    H16370    34.60598   35.43694   53.47727
      O    O16371    32.71316   33.25673   58.83024
      H    H16372    33.13004   33.04275   57.99558
      H    H16373    33.43714   33.51401   59.40110
      O    O16374    30.15119   30.70190   51.94724
      H    H16375    29.22411   30.63564   52.17609
      H    H16376    30.30367   31.63992   51.83277
      O    O16377    30.13809   26.97360   48.94396
      H    H16378    29.19846   27.13500   49.02921
      H    H16379    30.45642   27.69217   48.39756
      O    O16380    36.65937   31.65546   58.92186
      H    H16381    35.83123   31.72477   58.44688
      H    H16382    37.25442   32.24089   58.45345
      O    O16383    34.18091   32.26393   52.45077
      H    H16384    33.56216   31.92589   51.80340
      H    H16385    34.16336   31.61991   53.15869
      O    O16386    33.62357   28.44239   59.86735
      H    H16387    33.21069   29.26776   60.12135
      H    H16388    32.89117   27.85689   59.67499
      O    O16389    25.75685   31.22838   54.72922
      H    H16390    25.35255   30.51610   54.23381
      H    H16391    25.84316   30.88370   55.61802
      O    O16392    26.22502   34.91513   56.89314
      H    H16393    25.92785   34.30968   56.21392
      H    H16394    27.17500   34.95287   56.78207
      O    O16395    24.46971   28.00270   58.50912
      H    H16396    25.02117   28.11223   57.73445
      H    H16397    24.98406   28.37646   59.22464
      O    O16398    34.31358   38.48832   60.55545
      H    H16399    33.83664   39.29554   60.36271
      H    H16400    33.62976   37.83615   60.70807
      O    O16401    25.31686   34.65330   63.54392
      H    H16402    24.41972   34.87730   63.79126
      H    H16403    25.34215   34.77680   62.59506
      O    O16404    32.35738   31.50262   49.45804
      H    H16405    32.79671   30.66486   49.31183
      H    H16406    33.07023   32.13556   49.54446
      O    O16407    24.14398   31.52464   62.11965
      H    H16408    24.00476   32.39692   62.48839
      H    H16409    23.26212   31.18192   61.97445
      O    O16410    30.46692   36.44222   53.42617
      H    H16411    30.90651   37.18466   53.01171
      H    H16412    30.40561   36.68488   54.35006
      O    O16413    25.94202   37.46681   64.32817
      H    H16414    25.91356   37.87110   63.46101
      H    H16415    25.77852   36.53784   64.16533
      O    O16416    35.93910   22.75690   47.77215
      H    H16417    35.62636   22.84958   48.67205
      H    H16418    36.70035   23.33500   47.72189
      O    O16419    22.45731   30.12288   52.22988
      H    H16420    22.33707   30.84909   51.61801
      H    H16421    22.14740   29.35317   51.75267
      O    O16422    37.89350   38.24952   65.62459
      H    H16423    38.36947   38.72780   66.30349
      H    H16424    38.51422   38.18126   64.89914
      O    O16425    20.09585   33.29439   58.03675
      H    H16426    20.17389   33.42927   57.09232
      H    H16427    20.71002   32.58598   58.22956
      O    O16428    21.34061   34.99441   54.44736
      H    H16429    20.93342   35.13587   53.59272
      H    H16430    22.23191   34.71043   54.24448
      O    O16431    37.29683   35.44080   62.78459
      H    H16432    37.42313   35.20199   61.86631
      H    H16433    37.33896   34.60925   63.25680
      O    O16434    31.15850   39.14360   61.35407
      H    H16435    31.67297   39.05440   62.15631
      H    H16436    30.31541   39.48957   61.64686
      O    O16437    33.13394   39.42913   50.78247
      H    H16438    32.97405   39.13943   51.68065
      H    H16439    32.96861   38.65315   50.24699
      O    O16440    25.61278   39.20899   52.55963
      H    H16441    25.43703   38.29254   52.34641
      H    H16442    24.75835   39.56772   52.79941
      O    O16443    32.83655   36.93789   49.34227
      H    H16444    32.14307   36.93562   48.68250
      H    H16445    33.57884   36.51382   48.91169
      O    O16446    32.40155   38.56416   53.41712
      H    H16447    32.85724   37.78310   53.73098
      H    H16448    32.74080   39.27484   53.96124
      O    O16449    37.14923   27.49405   63.74956
      H    H16450    36.53365   28.00201   63.22111
      H    H16451    36.82887   26.59388   63.69216
      O    O16452    20.15180   34.33581   60.57619
      H    H16453    20.31491   33.86634   59.75813
      H    H16454    20.61705   33.82816   61.24108
      O    O16455    24.92368   23.46638   55.61225
      H    H16456    24.48049   24.24734   55.28070
      H    H16457    25.48218   23.78937   56.31934
      O    O16458    29.21066   26.33324   61.21578
      H    H16459    28.74860   26.54154   62.02777
      H    H16460    28.80847   25.51917   60.91285
      O    O16461    34.21111   27.55413   62.34545
      H    H16462    33.36047   27.25471   62.66635
      H    H16463    34.05129   27.79833   61.43383
      O    O16464    31.30608   29.05431   64.44533
      H    H16465    31.63142   28.22068   64.10555
      H    H16466    32.09411   29.57716   64.59316
      O    O16467    28.03956   23.08745   50.49283
      H    H16468    27.41498   23.08344   51.21816
      H    H16469    27.95257   22.22055   50.09643
      O    O16470    26.96127   24.01112   57.47121
      H    H16471    27.25850   24.91740   57.39041
      H    H16472    27.50982   23.52299   56.85717
      O    O16473    24.71510   28.58974   53.34037
      H    H16474    24.48919   28.37346   54.24504
      H    H16475    23.93435   29.02259   52.99497
      O    O16476    31.94488   28.59608   51.93944
      H    H16477    31.34577   29.31966   51.75580
      H    H16478    32.49284   28.53376   51.15708
      O    O16479    27.15502   29.48830   64.00640
      H    H16480    27.05938   28.54777   63.85644
      H    H16481    27.99822   29.70981   63.61121
      O    O16482    30.55136   27.23243   53.96977
      H    H16483    30.94432   27.54965   53.15664
      H    H16484    30.91305   26.35362   54.08422
      O    O16485    22.28608   25.89967   62.15978
      H    H16486    21.89241   26.74719   62.36706
      H    H16487    21.59792   25.26230   62.35064
      O    O16488    28.86058   25.98316   65.22945
      H    H16489    28.17041   25.79038   65.86406
      H    H16490    29.60381   26.26663   65.76188
      O    O16491    19.58778   23.82251   56.19279
      H    H16492    19.29909   24.39280   56.90528
      H    H16493    20.33236   23.34296   56.55591
      O    O16494    19.77480   27.76452   47.40306
      H    H16495    19.69227   28.70760   47.54456
      H    H16496    19.42311   27.62201   46.52429
      O    O16497    31.13688   29.82301   58.06484
      H    H16498    30.40499   30.33169   58.41385
      H    H16499    30.73931   29.00600   57.76372
      O    O16500    27.57462   26.49843   56.47009
      H    H16501    27.57822   26.05742   55.62055
      H    H16502    28.46973   26.82016   56.57728
      O    O16503    23.42485   26.38108   55.42951
      H    H16504    23.08486   26.85860   56.18622
      H    H16505    22.66259   25.92759   55.06962
      O    O16506    27.63663   27.49963   49.46077
      H    H16507    27.75791   27.45828   50.40935
      H    H16508    27.25148   28.36205   49.30544
      O    O16509    31.59947   25.27637   57.47714
      H    H16510    31.61674   25.72724   58.32132
      H    H16511    31.35103   24.37694   57.69048
      O    O16512    26.64878   29.80975   48.85910
      H    H16513    26.08047   29.36157   48.23269
      H    H16514    27.35768   30.16903   48.32561
      O    O16515    35.02654   22.68959   63.31578
      H    H16516    35.35112   21.95856   63.84157
      H    H16517    35.06219   22.37096   62.41388
      O    O16518    21.72570   33.71095   62.73577
      H    H16519    21.34118   33.07032   63.33407
      H    H16520    22.03692   34.41456   63.30525
      O    O16521    27.87541   30.55860   58.21663
      H    H16522    28.24243   30.08446   58.96277
      H    H16523    27.68592   31.43276   58.55747
      O    O16524    20.73946   25.30297   54.34598
      H    H16525    20.45415   24.93854   55.18384
      H    H16526    20.67735   24.57102   53.73230
      O    O16527    25.66535   29.59947   60.53506
      H    H16528    25.36106   30.47867   60.76009
      H    H16529    26.62000   29.65945   60.57080
      O    O16530    24.19353   33.80557   51.13174
      H    H16531    23.41976   33.26533   50.97161
      H    H16532    24.92299   33.28623   50.79352
      O    O16533    34.95233   32.80210   56.92438
      H    H16534    35.67224   33.29763   56.53399
      H    H16535    34.75051   32.12389   56.27977
      O    O16536    30.41332   24.19590   51.06732
      H    H16537    29.59978   23.69722   50.99185
      H    H16538    30.21952   25.03572   50.65095
      O    O16539    30.33421   32.87301   62.81128
      H    H16540    30.26794   31.95258   62.55704
      H    H16541    29.70472   32.97055   63.52574
      O    O16542    33.12816   28.56786   49.36353
      H    H16543    34.01612   28.87959   49.18867
      H    H16544    33.09867   27.69509   48.97159
      O    O16545    24.23727   33.47361   54.76962
      H    H16546    24.75514   32.67043   54.71531
      H    H16547    23.78567   33.41152   55.61130
      O    O16548    29.12422   34.74023   50.04235
      H    H16549    29.46579   35.48446   49.54668
      H    H16550    28.29549   35.05335   50.40483
      O    O16551    21.72172   30.43974   61.68219
      H    H16552    21.36322   31.10513   62.26953
      H    H16553    21.42718   29.60810   62.05345
      O    O16554    24.92304   30.89817   64.56615
      H    H16555    24.62305   31.04388   63.66893
      H    H16556    25.69416   30.33870   64.47349
      O    O16557    30.26588   35.69507   62.56166
      H    H16558    30.28033   34.76316   62.34355
      H    H16559    29.55839   35.78104   63.20064
      O    O16560    35.39959   29.87905   48.83152
      H    H16561    35.31596   30.31047   47.98116
      H    H16562    36.11901   30.33888   49.26420
      O    O16563    36.47700   32.33580   61.90852
      H    H16564    35.75182   32.92868   61.71146
      H    H16565    37.00455   32.32815   61.10985
      O    O16566    36.42831   36.73327   51.55973
      H    H16567    35.78593   36.07884   51.83411
      H    H16568    36.04138   37.13878   50.78380
      O    O16569    32.00696   34.06182   55.40690
      H    H16570    32.35934   33.46463   54.74704
      H    H16571    31.12319   33.73624   55.57773
      O    O16572    28.09329   34.82159   52.81394
      H    H16573    28.78040   35.36851   53.19470
      H    H16574    27.30653   35.36566   52.84890
      O    O16575    20.23253   30.43887   48.30565
      H    H16576    21.10201   30.72135   48.58924
      H    H16577    19.74156   31.25246   48.19053
      O    O16578    27.39601   31.82619   52.42648
      H    H16579    27.85229   32.63671   52.65250
      H    H16580    27.04483   31.50850   53.25833
      O    O16581    29.69927   37.33682   59.65571
      H    H16582    30.34349   37.54276   60.33305
      H    H16583    30.06221   36.57566   59.20279
      O    O16584    23.29719   22.16995   52.89873
      H    H16585    23.16865   22.16174   53.84722
      H    H16586    22.47339   22.50826   52.54783
      O    O16587    30.97248   35.34006   58.37345
      H    H16588    31.61470   34.63937   58.48667
      H    H16589    31.49741   36.11990   58.19314
      O    O16590    34.81805   35.62492   48.09737
      H    H16591    34.59181   34.90796   48.68983
      H    H16592    34.42767   35.37616   47.25954
      O    O16593    32.74624   36.13955   61.57706
      H    H16594    33.08186   36.72622   62.25485
      H    H16595    31.82627   36.00882   61.80684
      O    O16596    20.59965   39.65161   48.87181
      H    H16597    20.95942   40.25054   48.21754
      H    H16598    20.45889   40.19760   49.64532
      O    O16599    20.29658   23.92907   62.35940
      H    H16600    19.58243   24.12876   62.96466
      H    H16601    20.71608   23.15302   62.73088
      O    O16602    34.39968   33.54211   49.75878
      H    H16603    34.11185   34.00338   50.54657
      H    H16604    35.19489   33.08189   50.02721
      O    O16605    20.58384   37.91709   63.34605
      H    H16606    20.69295   36.97657   63.20559
      H    H16607    19.93190   38.18257   62.69743
      O    O16608    28.57510   36.18868   64.74587
      H    H16609    28.25479   35.46961   65.29044
      H    H16610    27.90093   36.86419   64.81947
      O    O16611    26.61652   37.03473   49.68918
      H    H16612    26.60753   37.76770   49.07363
      H    H16613    25.69635   36.78788   49.78188
      O    O16614    22.21718   32.25622   50.43386
      H    H16615    21.60997   32.99611   50.44339
      H    H16616    22.69211   32.34615   49.60768
      O    O16617    31.79046   26.42130   60.10955
      H    H16618    32.15854   25.60082   60.43750
      H    H16619    30.93028   26.48149   60.52511
      O    O16620    35.15666   25.37699   50.91830
      H    H16621    34.52798   25.48156   50.20413
      H    H16622    34.66185   25.59667   51.70769
      O    O16623    29.60248   37.09755   48.35170
      H    H16624    29.70367   36.89395   47.42190
      H    H16625    28.70265   36.84338   48.55648
      O    O16626    27.12506   27.65559   52.33409
      H    H16627    26.41668   28.12422   52.77545
      H    H16628    27.40951   26.99779   52.96861
      O    O16629    28.75066   29.07526   60.33334
      H    H16630    29.24918   29.54984   60.99853
      H    H16631    28.89295   28.15161   60.54035
      O    O16632    31.15661   24.38065   53.77367
      H    H16633    31.03339   24.39927   52.82462
      H    H16634    32.10506   24.42855   53.89351
      O    O16635    28.24429   39.61618   53.04647
      H    H16636    28.49844   39.57832   52.12440
      H    H16637    27.29553   39.48952   53.03929
      O    O16638    25.32857   25.96409   49.70916
      H    H16639    26.17762   26.40111   49.64318
      H    H16640    24.96169   26.27612   50.53637
      O    O16641    35.95734   25.29205   61.17618
      H    H16642    35.45470   26.03259   61.51556
      H    H16643    36.77301   25.68045   60.85986
      O    O16644    34.24954   30.53537   54.62232
      H    H16645    33.30856   30.55039   54.79709
      H    H16646    34.56395   29.74897   55.06835
      O    O16647    24.22771   32.21733   48.18271
      H    H16648    24.99404   32.10547   48.74526
      H    H16649    24.30518   31.52113   47.53039
      O    O16650    22.92238   29.64984   48.86600
      H    H16651    23.00274   28.70259   48.97774
      H    H16652    23.81436   29.98053   48.97207
      O    O16653    36.25210   37.70626   56.29774
      H    H16654    36.37684   38.52937   56.77013
      H    H16655    37.11866   37.49533   55.95016
      O    O16656    23.72386   39.79938   55.96946
      H    H16657    24.46010   39.25092   56.24031
      H    H16658    24.10795   40.66498   55.83006
      O    O16659    20.60840   35.86673   51.84361
      H    H16660    19.68238   36.10885   51.83415
      H    H16661    21.07405   36.69416   51.72208
      O    O16662    22.72968   38.98398   65.15802
      H    H16663    23.53096   39.30519   65.57156
      H    H16664    22.21487   38.62354   65.88001
      O    O16665    26.83409   38.97241   47.79201
      H    H16666    27.62695   39.26129   47.34019
      H    H16667    26.31452   38.54162   47.11326
      O    O16668    31.56615   35.09197   65.10556
      H    H16669    30.95996   35.11513   64.36513
      H    H16670    31.26156   34.36027   65.64228
      O    O16671    32.99618   38.82000   63.71650
      H    H16672    33.94836   38.73580   63.66652
      H    H16673    32.84901   39.48417   64.38988
      O    O16674    35.88710   38.19942   49.21569
      H    H16675    35.60125   37.78593   48.40111
      H    H16676    35.68906   39.12819   49.09574
      O    O16677    20.44946   31.47133   64.10162
      H    H16678    20.95337   30.89206   64.67324
      H    H16679    19.71021   31.75535   64.63926
      O    O16680    27.35183   34.19275   47.65625
      H    H16681    27.24689   33.57798   48.38239
      H    H16682    27.18425   33.66934   46.87255
      O    O16683    27.50326   32.87843   63.63517
      H    H16684    26.73783   33.44693   63.55064
      H    H16685    27.68485   32.58605   62.74200
      O    O16686    30.59210   33.25475   48.26045
      H    H16687    30.04311   33.70168   48.90472
      H    H16688    31.21403   32.74968   48.78422
      O    O16689    34.64559   34.60896   64.19267
      H    H16690    35.38654   34.94654   63.68942
      H    H16691    33.88286   34.77817   63.63965
      O    O16692    22.48177   29.61429   64.99663
      H    H16693    22.52231   29.31568   65.90515
      H    H16694    23.33632   30.01505   64.83738
      O    O16695    26.25961   32.21384   50.15698
      H    H16696    26.68125   32.04783   51.00012
      H    H16697    26.38470   31.40387   49.66249
      O    O16698    24.42235   28.19350   62.96408
      H    H16699    23.89200   27.70259   62.33641
      H    H16700    25.09116   28.62192   62.42987
      O    O16701    28.77238   31.23760   47.40469
      H    H16702    29.29294   30.52251   47.03880
      H    H16703    29.41922   31.87619   47.70474
      O    O16704    33.32016   32.66044   62.72820
      H    H16705    33.73426   32.81495   63.57724
      H    H16706    32.38526   32.78597   62.89077
      O    O16707    33.79238   30.00006   64.73211
      H    H16708    34.37445   29.24529   64.64416
      H    H16709    33.96855   30.53080   63.95526
      O    O16710    24.90958   25.15974   63.04381
      H    H16711    24.81527   24.54181   62.31889
      H    H16712    24.32932   25.88636   62.81680
      O    O16713    27.67573   23.71706   60.07654
      H    H16714    27.22746   23.73949   59.23110
      H    H16715    27.04225   23.31896   60.67357
      O    O16716    28.08168   32.61249   60.69779
      H    H16717    28.50049   33.45577   60.52541
      H    H16718    27.16255   32.74970   60.46847
      O    O16719    30.41807   30.34411   62.08157
      H    H16720    30.53769   29.74822   62.82106
      H    H16721    31.27747   30.38108   61.66170
      O    O16722    32.75686   30.89783   60.65782
      H    H16723    32.23038   31.42209   60.05434
      H    H16724    33.10000   31.53057   61.28880
      O    O16725    25.15550   28.28717   47.10279
      H    H16726    24.95441   27.42390   47.46413
      H    H16727    24.98471   28.20050   46.16495
      O    O16728    25.93242   38.91779   61.81356
      H    H16729    25.39453   39.64240   61.49443
      H    H16730    26.18582   38.44083   61.02330
      O    O16731    27.18495   26.88625   63.33915
      H    H16732    27.77492   26.57783   64.02694
      H    H16733    26.36697   26.41422   63.49514
      O    O16734    32.00429   26.50283   63.57246
      H    H16735    31.31584   25.84098   63.50746
      H    H16736    32.72489   26.05665   64.01730
      O    O16737    32.63433   23.09799   49.63148
      H    H16738    32.91456   22.25478   49.98742
      H    H16739    31.86091   23.33030   50.14536
      O    O16740    23.95378   25.38723   47.09058
      H    H16741    24.25637   25.39397   46.18250
      H    H16742    24.69324   25.03701   47.58735
      O    O16743    28.78865   40.15291   62.07223
      H    H16744    28.71452   41.05643   62.37946
      H    H16745    27.88653   39.83410   62.04443
      O    O16746    27.17227   24.33069   48.07620
      H    H16747    26.82447   23.65309   47.49645
      H    H16748    27.37355   23.86964   48.89054
      O    O16749    29.33718   39.31877   49.69486
      H    H16750    30.23226   39.65726   49.71674
      H    H16751    29.36894   38.59671   49.06729
      O    O16752    22.97679   34.69147   47.92356
      H    H16753    23.41428   35.23444   48.57932
      H    H16754    23.46157   33.86617   47.93320
      O    O16755    20.19137   37.48037   55.37559
      H    H16756    20.52168   36.61248   55.14345
      H    H16757    20.62047   37.68623   56.20608
      O    O16758    24.78757   35.81127   53.03579
      H    H16759    24.48712   35.68777   53.93618
      H    H16760    24.68132   34.95213   52.62736
      O    O16761    20.68040   38.34743   58.11375
      H    H16762    20.24349   38.52751   58.94617
      H    H16763    21.24816   39.10489   57.97192
      O    O16764    36.31661   37.84913   62.40148
      H    H16765    35.71681   37.90839   61.65787
      H    H16766    36.44600   36.90963   62.53117
      O    O16767    37.55676   35.59091   47.73845
      H    H16768    36.72605   35.65858   48.20918
      H    H16769    37.73394   36.48133   47.43514
      O    O16770    37.01240   32.33566   50.24187
      H    H16771    37.77430   32.90533   50.34784
      H    H16772    37.02784   31.76838   51.01270
      O    O16773    20.51284   30.85946   54.47264
      H    H16774    19.85772   30.59062   53.82861
      H    H16775    21.35063   30.74990   54.02284
      O    O16776    38.01840   33.19067   55.08607
      H    H16777    38.38928   32.40740   54.67966
      H    H16778    38.65859   33.87958   54.90780
      O    O16779    35.00178   34.57433   60.49910
      H    H16780    34.18776   35.00405   60.76168
      H    H16781    35.40920   35.18617   59.88600
      O    O16782    37.06432   32.62910   47.39913
      H    H16783    37.33921   33.53699   47.27105
      H    H16784    36.87540   32.56535   48.33532
      O    O16785    33.46188   25.65358   48.69449
      H    H16786    33.88037   25.46668   47.85415
      H    H16787    33.15549   24.80149   49.00478
      O    O16788    36.96086   30.56600   52.39207
      H    H16789    36.58522   29.79879   51.96020
      H    H16790    36.23117   30.94827   52.87956
      O    O16791    21.55043   31.24471   59.01297
      H    H16792    21.91774   31.15745   59.89258
      H    H16793    20.98151   30.48137   58.91366
      O    O16794    36.35082   29.71315   62.02602
      H    H16795    36.11943   29.48443   61.12582
      H    H16796    36.61127   30.63311   61.98051
      O    O16797    21.10203   28.15562   62.91882
      H    H16798    20.20764   28.12230   63.25819
      H    H16799    21.64179   28.35430   63.68394
      O    O16800    34.78962   24.93879   64.80399
      H    H16801    35.66664   24.94713   65.18739
      H    H16802    34.80171   24.20188   64.19323
      O    O16803    19.72665   28.06935   50.41517
      H    H16804    18.82305   28.33237   50.24034
      H    H16805    20.21071   28.34047   49.63517
      O    O16806    36.23595   28.79175   55.69279
      H    H16807    36.75970   28.29801   55.06181
      H    H16808    36.82189   28.92678   56.43755
      O    O16809    36.41492   28.87573   59.21475
      H    H16810    35.46519   28.84209   59.32925
      H    H16811    36.59622   29.78575   58.97972
      O    O16812    22.26937   27.12590   48.32461
      H    H16813    22.97854   26.70422   47.83934
      H    H16814    21.55336   27.19343   47.69295
      O    O16815    21.91678   23.17984   47.36488
      H    H16816    22.63960   23.72073   47.68300
      H    H16817    22.18924   22.90618   46.48903
      O    O16818    35.72595   28.04908   51.63203
      H    H16819    36.22186   27.81617   52.41692
      H    H16820    35.52756   27.21027   51.21580
      O    O16821    21.60600   22.43045   57.26714
      H    H16822    22.25362   21.88019   56.82665
      H    H16823    22.02619   22.68477   58.08872
      O    O16824    37.15466   26.68518   54.16580
      H    H16825    37.04459   26.53078   55.10403
      H    H16826    37.91542   26.15727   53.92334
      O    O16827    35.50124   22.62459   60.62410
      H    H16828    36.13846   23.23800   60.99002
      H    H16829    35.64873   22.66066   59.67902
      O    O16830    38.04369   24.51597   47.40642
      H    H16831    38.96862   24.38409   47.19824
      H    H16832    38.02127   24.59525   48.36006
      O    O16833    38.11754   25.28704   50.03209
      H    H16834    37.32269   25.22155   50.56138
      H    H16835    38.32187   26.22210   50.02062
      O    O16836    35.05938   39.32619   54.02593
      H    H16837    35.65529   39.00465   53.34937
      H    H16838    35.31720   38.85337   54.81725
      O    O16839    21.35920   22.58602   60.00967
      H    H16840    21.01068   23.04240   60.77549
      H    H16841    21.02797   21.69173   60.09191
      O    O16842    22.96564   35.75798   64.17499
      H    H16843    22.92260   35.38727   65.05643
      H    H16844    23.09674   36.69574   64.31517
      O    O16845    26.66624   37.31394   59.77596
      H    H16846    26.42538   37.58140   58.88901
      H    H16847    27.60651   37.48451   59.83105
      O    O16848    28.87168   23.77721   63.53161
      H    H16849    28.81057   24.36939   64.28115
      H    H16850    29.81172   23.66981   63.38664
      O    O16851    31.50914   23.43422   63.17084
      H    H16852    32.12318   23.75214   62.50895
      H    H16853    32.05410   22.94907   63.79043
      O    O16854    37.92666   39.33338   60.57702
      H    H16855    37.43249   39.73027   59.85974
      H    H16856    37.31799   38.70830   60.97075
      O    O16857    22.03127   22.11364   63.28475
      H    H16858    22.57957   21.93245   62.52136
      H    H16859    22.09680   21.32305   63.82038
      O    O16860    22.80444   38.70421   61.29477
      H    H16861    22.21047   38.57268   62.03377
      H    H16862    22.79683   37.86802   60.82898
      O    O16863    32.24994   21.99743   59.49777
      H    H16864    31.37593   22.33094   59.29506
      H    H16865    32.14102   21.52475   60.32296
      O    O16866    33.15714   24.20452   60.88194
      H    H16867    32.82848   23.38969   60.50211
      H    H16868    34.10537   24.16150   60.75851
      O    O16869    35.61060   39.97572   57.85570
      H    H16870    35.15090   40.72730   57.48150
      H    H16871    34.98185   39.25637   57.79718
      O    O16872    22.43567   36.07004   60.24557
      H    H16873    21.70907   35.45057   60.17817
      H    H16874    22.49658   36.46411   59.37538
      O    O16875    26.04018   38.28454   57.03051
      H    H16876    26.55668   37.67328   56.50534
      H    H16877    26.68991   38.78742   57.52161
      O    O16878    28.77973   39.17539   57.85741
      H    H16879    29.06751   38.92082   56.98071
      H    H16880    29.29205   38.62313   58.44797
      O    O16881    29.99743   22.91441   58.43706
      H    H16882    29.21461   23.38896   58.71674
      H    H16883    29.70372   22.00990   58.32838
      O    O16884    34.54953   23.61672   56.48197
      H    H16885    34.99034   23.56123   55.63413
      H    H16886    34.28029   24.53252   56.55299
      O    O16887    36.41339   23.24825   54.49285
      H    H16888    36.35223   22.30437   54.34595
      H    H16889    37.19259   23.35626   55.03820
      O    O16890    20.71867   39.38748   53.45525
      H    H16891    20.55087   38.75455   54.15344
      H    H16892    19.85212   39.59342   53.10467
      O    O16893    21.34147   23.21916   50.95843
      H    H16894    22.09940   23.33205   50.38484
      H    H16895    20.87918   24.05608   50.91278
      O    O16896    27.88285   25.33309   53.94866
      H    H16897    27.07030   24.95878   53.60825
      H    H16898    28.38701   24.57760   54.25078
      O    O16899    32.38535   21.99733   55.18697
      H    H16900    32.98828   22.56935   55.66182
      H    H16901    31.64465   22.56128   54.96436
      O    O16902    35.52881   22.39949   50.46100
      H    H16903    35.72387   23.29783   50.72774
      H    H16904    34.74179   22.16820   50.95429
      O    O16905    22.32494   38.08081   50.90026
      H    H16906    21.79970   38.46161   50.19646
      H    H16907    22.24939   38.70588   51.62123
      O    O16908    23.71398   23.74557   49.49863
      H    H16909    24.24326   22.95855   49.36942
      H    H16910    24.34681   24.42469   49.73218
      O    O16911    25.90777   23.48308   52.55317
      H    H16912    25.27804   22.78181   52.72018
      H    H16913    25.36828   24.24349   52.33648
      O    O16914    28.84696   40.09700   65.22423
      H    H16915    29.77369   39.86143   65.26783
      H    H16916    28.83200   40.92420   64.74283
      O    O16917    37.08147   39.63956   52.22165
      H    H16918    37.25669   38.95333   51.57775
      H    H16919    36.38362   40.16427   51.82932
      O    O16920    26.03332   22.76148   64.98842
      H    H16921    25.75175   23.26484   64.22450
      H    H16922    26.41529   21.96365   64.62263
      O    O16923    24.92423   40.02904   49.77519
      H    H16924    25.65611   39.74497   49.22757
      H    H16925    25.18360   39.79037   50.66512
      O    O16926    24.08571   36.14552   49.77982
      H    H16927    23.45660   36.61403   50.32840
      H    H16928    24.20049   35.30044   50.21444
      O    O16929    32.63487   22.17684   65.56646
      H    H16930    32.52141   22.49630   66.46162
      H    H16931    33.45184   22.57809   65.27019
      O    O16932    35.41472   39.32399   65.04833
      H    H16933    36.20725   38.82891   64.84093
      H    H16934    35.70803   40.00300   65.65589
      O    O16935    -8.77632   -6.31110   66.17904
      H    H16936    -8.25576   -7.02619   65.81315
      H    H16937    -8.12948   -5.67251   66.47909
      O    O16938     8.05974    1.42371   66.56636
      H    H16939     8.85260    1.71259   66.11454
      H    H16940     7.54017    0.99292   65.88761
      O    O16941     9.99803   -6.31110   66.17904
      H    H16942    10.51859   -7.02619   65.81315
      H    H16943    10.64487   -5.67251   66.47909
      O    O16944    26.83409    1.42371   66.56636
      H    H16945    27.62695    1.71259   66.11454
      H    H16946    26.31452    0.99292   65.88761
      O    O16947    28.77238   -6.31110   66.17904
      H    H16948    29.29294   -7.02619   65.81315
      H    H16949    29.41922   -5.67251   66.47909
      O    O16950    -8.77632   12.46325   66.17904
      H    H16951    -8.25576   11.74816   65.81315
      H    H16952    -8.12948   13.10184   66.47909
      O    O16953     1.00045    8.99017   66.17741
      H    H16954     0.91792    9.93325   66.31891
      H    H16955     0.64876    8.84766   65.29864
      O    O16956     8.05974   20.19806   66.56636
      H    H16957     8.85260   20.48694   66.11454
      H    H16958     7.54017   19.76727   65.88761
      O    O16959     9.99803   12.46325   66.17904
      H    H16960    10.51859   11.74816   65.81315
      H    H16961    10.64487   13.10184   66.47909
      O    O16962     6.38115    9.51282   65.87714
      H    H16963     6.18006    8.64955   66.23848
      H    H16964     6.21036    9.42615   64.93930
      O    O16965     5.17943    6.61288   65.86493
      H    H16966     5.48202    6.61962   64.95685
      H    H16967     5.91889    6.26266   66.36170
      O    O16968     3.14243    4.40549   66.13923
      H    H16969     3.86525    4.94638   66.45735
      H    H16970     3.41489    4.13183   65.26338
      O    O16971    19.77480    8.99017   66.17741
      H    H16972    19.69227    9.93325   66.31891
      H    H16973    19.42311    8.84766   65.29864
      O    O16974    26.83409   20.19806   66.56636
      H    H16975    27.62695   20.48694   66.11454
      H    H16976    26.31452   19.76727   65.88761
      O    O16977    28.77238   12.46325   66.17904
      H    H16978    29.29294   11.74816   65.81315
      H    H16979    29.41922   13.10184   66.47909
      O    O16980    25.15550    9.51282   65.87714
      H    H16981    24.95441    8.64955   66.23848
      H    H16982    24.98471    9.42615   64.93930
      O    O16983    23.95378    6.61288   65.86493
      H    H16984    24.25637    6.61962   64.95685
      H    H16985    24.69324    6.26266   66.36170
      O    O16986    21.91678    4.40549   66.13923
      H    H16987    22.63960    4.94638   66.45735
      H    H16988    22.18924    4.13183   65.26338
      O    O16989    -8.77632   31.23760   66.17904
      H    H16990    -8.25576   30.52251   65.81315
      H    H16991    -8.12948   31.87619   66.47909
      O    O16992     1.00045   27.76452   66.17741
      H    H16993     0.91792   28.70760   66.31891
      H    H16994     0.64876   27.62201   65.29864
      O    O16995     8.05974   38.97241   66.56636
      H    H16996     8.85260   39.26129   66.11454
      H    H16997     7.54017   38.54162   65.88761
      O    O16998     9.99803   31.23760   66.17904
      H    H16999    10.51859   30.52251   65.81315
      H    H17000    10.64487   31.87619   66.47909
      O    O17001     6.38115   28.28717   65.87714
      H    H17002     6.18006   27.42390   66.23848
      H    H17003     6.21036   28.20050   64.93930
      O    O17004     5.17943   25.38723   65.86493
      H    H17005     5.48202   25.39397   64.95685
      H    H17006     5.91889   25.03701   66.36170
      O    O17007     3.14243   23.17984   66.13923
      H    H17008     3.86525   23.72073   66.45735
      H    H17009     3.41489   22.90618   65.26338
      O    O17010    19.77480   27.76452   66.17741
      H    H17011    19.69227   28.70760   66.31891
      H    H17012    19.42311   27.62201   65.29864
      O    O17013    26.83409   38.97241   66.56636
      H    H17014    27.62695   39.26129   66.11454
      H    H17015    26.31452   38.54162   65.88761
      O    O17016    28.77238   31.23760   66.17904
      H    H17017    29.29294   30.52251   65.81315
      H    H17018    29.41922   31.87619   66.47909
      O    O17019    25.15550   28.28717   65.87714
      H    H17020    24.95441   27.42390   66.23848
      H    H17021    24.98471   28.20050   64.93930
      O    O17022    23.95378   25.38723   65.86493
      H    H17023    24.25637   25.39397   64.95685
      H    H17024    24.69324   25.03701   66.36170
      O    O17025    21.91678   23.17984   66.13923
      H    H17026    22.63960   23.72073   66.45735
      H    H17027    22.18924   22.90618   65.26338
