data_global
_cell_length_a 30
_cell_length_b 40
_cell_length_c 30
_cell_angle_alpha 90
_cell_angle_beta 90
_cell_angle_gamma 90
_symmetry_space_group_name_H-M 'P -1'
loop_
_symmetry_equiv_pos_as_xyz
  'x,y,z'
loop_
_atom_site_label
_atom_site_fract_x
_atom_site_fract_y
_atom_site_fract_z
H 0.611789 0.431303 0.582886
H 0.616567 0.399702 0.510733
H 0.609986 0.484271 0.6236
C 0.612654 0.454551 0.564098
C 0.616221 0.423583 0.4934
H 0.60942 0.399666 0.429606
C 0.61133 0.484912 0.587382
C 0.614459 0.453878 0.51747
C 0.612262 0.423064 0.447086
H 0.609773 0.546809 0.624099
C 0.612348 0.515935 0.56483
C 0.613745 0.484619 0.494227
C 0.610309 0.546229 0.587838
C 0.600934 0.453395 0.426329
C 0.612644 0.515538 0.517764
C 0.610739 0.484402 0.447444
H 0.608499 0.515494 0.388325
C 0.609696 0.576496 0.564725
C 0.611311 0.546231 0.494302
H 0.608912 0.600022 0.58292
C 0.610343 0.515136 0.424573
C 0.609946 0.576479 0.518231
C 0.610915 0.545569 0.447606
H 0.608959 0.600334 0.500834
H 0.609672 0.568791 0.427792
C 0.552234 0.452081 0.410026
H 0.509624 0.449046 0.467749
H 0.547181 0.426437 0.398281
H 0.514664 0.489636 0.444869
H 0.551744 0.466356 0.377796
C 0.512202 0.462995 0.436483
O 0.410079 0.494988 0.429149
C 0.470623 0.457309 0.407141
C 0.427878 0.467514 0.43021
H 0.473004 0.471208 0.375901
H 0.46835 0.430552 0.399134
O 0.409749 0.442416 0.454004
H 0.383433 0.452435 0.468096
